

        *** GPGPU-Sim Simulator Version 3.2.2  [build 0] ***


GPGPU-Sim PTX: simulation mode 0 (can change with PTX_SIM_MODE_FUNC environment variable:
               1=functional simulation only, 0=detailed performance simulator)
GPGPU-Sim: Configuration options:

-network_mode                           1 # Interconnection network mode
-inter_config_file   config_fermi_islip.icnt # Interconnection network config file
-gpgpu_ptx_use_cuobjdump                    1 # Use cuobjdump to extract ptx and sass from binaries
-gpgpu_experimental_lib_support                    0 # Try to extract code from cuda libraries [Broken because of unknown cudaGetExportTable]
-gpgpu_ptx_convert_to_ptxplus                    0 # Convert SASS (native ISA) to ptxplus and run ptxplus
-gpgpu_ptx_force_max_capability                   20 # Force maximum compute capability
-gpgpu_ptx_inst_debug_to_file                    0 # Dump executed instructions' debug information to file
-gpgpu_ptx_inst_debug_file       inst_debug.txt # Executed instructions' debug output file
-gpgpu_ptx_inst_debug_thread_uid                    1 # Thread UID for executed instructions' debug output
-gpgpu_simd_model                       1 # 1 = post-dominator
-gpgpu_shader_core_pipeline              1536:32 # shader core pipeline config, i.e., {<nthread>:<warpsize>}
-gpgpu_tex_cache:l1  4:128:24,L:R:m:N:L,F:128:4,128:2 # per-shader L1 texture cache  (READ-ONLY) config  {<nsets>:<bsize>:<assoc>,<rep>:<wr>:<alloc>:<wr_alloc>,<mshr>:<N>:<merge>,<mq>:<rf>}
-gpgpu_const_cache:l1 64:64:2,L:R:f:N:L,A:2:32,4 # per-shader L1 constant memory cache  (READ-ONLY) config  {<nsets>:<bsize>:<assoc>,<rep>:<wr>:<alloc>:<wr_alloc>,<mshr>:<N>:<merge>,<mq>} 
-gpgpu_cache:il1     4:128:4,L:R:f:N:L,A:2:32,4 # shader L1 instruction cache config  {<nsets>:<bsize>:<assoc>,<rep>:<wr>:<alloc>:<wr_alloc>,<mshr>:<N>:<merge>,<mq>} 
-gpgpu_cache:dl1     32:128:4,L:L:m:N:H,A:32:8,8 # per-shader L1 data cache config  {<nsets>:<bsize>:<assoc>,<rep>:<wr>:<alloc>:<wr_alloc>,<mshr>:<N>:<merge>,<mq> | none}
-gpgpu_cache:dl1PrefL1                 none # per-shader L1 data cache config  {<nsets>:<bsize>:<assoc>,<rep>:<wr>:<alloc>:<wr_alloc>,<mshr>:<N>:<merge>,<mq> | none}
-gpgpu_cache:dl1PreShared                 none # per-shader L1 data cache config  {<nsets>:<bsize>:<assoc>,<rep>:<wr>:<alloc>:<wr_alloc>,<mshr>:<N>:<merge>,<mq> | none}
-gmem_skip_L1D                          0 # global memory access skip L1D cache (implements -Xptxas -dlcm=cg, default=no skip)
-gpgpu_perfect_mem                      0 # enable perfect memory mode (no cache miss)
-n_regfile_gating_group                    4 # group of lanes that should be read/written together)
-gpgpu_clock_gated_reg_file                    0 # enable clock gated reg file for power calculations
-gpgpu_clock_gated_lanes                    0 # enable clock gated lanes for power calculations
-gpgpu_shader_registers                32768 # Number of registers per shader core. Limits number of concurrent CTAs. (default 8192)
-gpgpu_shader_cta                       8 # Maximum number of concurrent CTAs in shader (default 8)
-gpgpu_num_cta_barriers                   16 # Maximum number of named barriers per CTA (default 16)
-gpgpu_n_clusters                      15 # number of processing clusters
-gpgpu_n_cores_per_cluster                    1 # number of simd cores per cluster
-gpgpu_n_cluster_ejection_buffer_size                    8 # number of packets in ejection buffer
-gpgpu_n_ldst_response_buffer_size                    2 # number of response packets in ld/st unit ejection buffer
-gpgpu_shmem_size                   16384 # Size of shared memory per shader core (default 16kB)
-gpgpu_shmem_size                   49152 # Size of shared memory per shader core (default 16kB)
-gpgpu_shmem_size_PrefL1                16384 # Size of shared memory per shader core (default 16kB)
-gpgpu_shmem_size_PrefShared                16384 # Size of shared memory per shader core (default 16kB)
-gpgpu_shmem_num_banks                   32 # Number of banks in the shared memory in each shader core (default 16)
-gpgpu_shmem_limited_broadcast                    0 # Limit shared memory to do one broadcast per cycle (default on)
-gpgpu_shmem_warp_parts                    1 # Number of portions a warp is divided into for shared memory bank conflict check 
-gpgpu_warpdistro_shader                   -1 # Specify which shader core to collect the warp size distribution from
-gpgpu_warp_issue_shader                    0 # Specify which shader core to collect the warp issue distribution from
-gpgpu_local_mem_map                    1 # Mapping from local memory space address to simulated GPU physical address space (default = enabled)
-gpgpu_num_reg_banks                   16 # Number of register banks (default = 8)
-gpgpu_reg_bank_use_warp_id                    0 # Use warp ID in mapping registers to banks (default = off)
-gpgpu_operand_collector_num_units_sp                    6 # number of collector units (default = 4)
-gpgpu_operand_collector_num_units_sfu                    8 # number of collector units (default = 4)
-gpgpu_operand_collector_num_units_mem                    2 # number of collector units (default = 2)
-gpgpu_operand_collector_num_units_gen                    0 # number of collector units (default = 0)
-gpgpu_operand_collector_num_in_ports_sp                    2 # number of collector unit in ports (default = 1)
-gpgpu_operand_collector_num_in_ports_sfu                    1 # number of collector unit in ports (default = 1)
-gpgpu_operand_collector_num_in_ports_mem                    1 # number of collector unit in ports (default = 1)
-gpgpu_operand_collector_num_in_ports_gen                    0 # number of collector unit in ports (default = 0)
-gpgpu_operand_collector_num_out_ports_sp                    2 # number of collector unit in ports (default = 1)
-gpgpu_operand_collector_num_out_ports_sfu                    1 # number of collector unit in ports (default = 1)
-gpgpu_operand_collector_num_out_ports_mem                    1 # number of collector unit in ports (default = 1)
-gpgpu_operand_collector_num_out_ports_gen                    0 # number of collector unit in ports (default = 0)
-gpgpu_coalesce_arch                   13 # Coalescing arch (default = 13, anything else is off for now)
-gpgpu_num_sched_per_core                    2 # Number of warp schedulers per core
-gpgpu_max_insn_issue_per_warp                    1 # Max number of instructions that can be issued per warp in one cycle by scheduler
-gpgpu_simt_core_sim_order                    1 # Select the simulation order of cores in a cluster (0=Fix, 1=Round-Robin)
-gpgpu_pipeline_widths        2,1,1,2,1,1,2 # Pipeline widths ID_OC_SP,ID_OC_SFU,ID_OC_MEM,OC_EX_SP,OC_EX_SFU,OC_EX_MEM,EX_WB
-gpgpu_num_sp_units                     2 # Number of SP units (default=1)
-gpgpu_num_sfu_units                    1 # Number of SF units (default=1)
-gpgpu_num_mem_units                    1 # Number if ldst units (default=1) WARNING: not hooked up to anything
-gpgpu_scheduler                      gto # Scheduler configuration: < lrr | gto | two_level_active > If two_level_active:<num_active_warps>:<inner_prioritization>:<outer_prioritization>For complete list of prioritization values see shader.h enum scheduler_prioritization_typeDefault: gto
-gpgpu_dram_scheduler                    1 # 0 = fifo, 1 = FR-FCFS (defaul)
-gpgpu_dram_partition_queues              8:8:8:8 # i2$:$2d:d2$:$2i
-gpgpu_dram_pcie_queues                    8 # d2p
-l2_ideal                               0 # Use a ideal L2 cache that always hit
-gpgpu_cache:dl2     64:128:8,L:B:m:N:L,A:32:4,4:0,32 # unified banked L2 data cache config  {<nsets>:<bsize>:<assoc>,<rep>:<wr>:<alloc>:<wr_alloc>,<mshr>:<N>:<merge>,<mq>}
-gpgpu_cache:dram_cache 1024:256:4,L:B:m:N:L,A:32:4,4:0,32 # DRAM Cache config {<nsets>:<bsize>:<assoc>,<rep>:<wr>:<alloc>:<wr_alloc>,<mshr>:<N>:<merge>,<mq>}
-dram_cache_prefetch                    1 # DRAM Cache Prefetch Enable
-redram                                 0 # DRAM Cache Reconfig Enable
-redram_cache                           1 # DRAM Cache Reconfig Cache Ratio
-gpgpu_cache:dl2_texture_only                    0 # L2 cache used for texture only
-gpgpu_n_mem                            8 # number of memory modules (e.g. memory controllers) in gpu
-gpgpu_n_sub_partition_per_mchannel                    2 # number of memory subpartition in each memory module
-gpgpu_n_mem_per_ctrlr                    2 # number of memory chips per memory controller
-gpgpu_memlatency_stat                   14 # track and display latency statistics 0x2 enables MC, 0x4 enables queue logs
-gpgpu_frfcfs_dram_sched_queue_size                   16 # 0 = unlimited (default); # entries per chip
-gpgpu_dram_return_queue_size                  116 # 0 = unlimited (default); # entries per chip
-gpgpu_dram_buswidth                    4 # default = 4 bytes (8 bytes per cycle at DDR)
-gpgpu_dram_burst_length                    8 # Burst length of each DRAM request (default = 4 data bus cycle)
-dram_data_command_freq_ratio                    4 # Frequency ratio between DRAM data bus and command bus (default = 2 times, i.e. DDR)
-gpgpu_dram_timing_opt rows=64:nbk=16:CCD=2:RRD=6:RCD=12:RAS=28:RP=12:RC=40:CL=12:WL=4:CDLR=5:WR=12:nbkgrp=4:CCDL=3:RTPL=2 # DRAM timing parameters = {nbk:tCCD:tRRD:tRCD:tRAS:tRP:tRC:CL:WL:tCDLR:tWR:nbkgrp:tCCDL:tRTPL}
-rop_latency                          120 # ROP queue latency (default 85)
-dram_latency                         100 # DRAM latency (default 30)
-gpgpu_mem_addr_mapping dramid;00000000.00000000.00000000.00000000.0RRRRRRR.RRRRRBBB.BDDDCCCC.CCSSSSSS # mapping memory address to dram model {dramid@<start bit>;<memory address map>}
-gpgpu_mem_addr_test                    0 # run sweep test to check address mapping for aliased address
-gpgpu_mem_address_mask                    1 # 0 = old addressing mask, 1 = new addressing mask, 2 = new add. mask + flipped bank sel and chip sel bits
-gpuwattch_xml_file  gpuwattch_gtx480.xml # GPUWattch XML file
-power_simulation_enabled                    0 # Turn on power simulator (1=On, 0=Off)
-power_per_cycle_dump                    0 # Dump detailed power output each cycle
-power_trace_enabled                    0 # produce a file for the power trace (1=On, 0=Off)
-power_trace_zlevel                     6 # Compression level of the power trace output log (0=no comp, 9=highest)
-steady_power_levels_enabled                    0 # produce a file for the steady power levels (1=On, 0=Off)
-steady_state_definition                  8:4 # allowed deviation:number of samples
-gpgpu_max_cycle                        0 # terminates gpu simulation early (0 = no limit)
-gpgpu_max_insn                         0 # terminates gpu simulation early (0 = no limit)
-gpgpu_max_cta                          0 # terminates gpu simulation early (0 = no limit)
-gpgpu_runtime_stat                   500 # display runtime statistics such as dram utilization {<freq>:<flag>}
-liveness_message_freq                    1 # Minimum number of seconds between simulation liveness messages (0 = always print)
-gpgpu_flush_l1_cache                    0 # Flush L1 cache at the end of each kernel call
-gpgpu_flush_l2_cache                    0 # Flush L2 cache at the end of each kernel call
-gpgpu_deadlock_detect                    1 # Stop the simulation at deadlock (1=on (default), 0=off)
-gpgpu_ptx_instruction_classification                    0 # if enabled will classify ptx instruction types per kernel (Max 255 kernels now)
-gpgpu_ptx_sim_mode                     0 # Select between Performance (default) or Functional simulation (1)
-gpgpu_clock_domains 700.0:700.0:700.0:924.0:100.0 # Clock Domain Frequencies in MhZ {<Core Clock>:<ICNT Clock>:<L2 Clock>:<DRAM Clock>:<PCIe Frequency>}
-gpgpu_pinned                           0 # Pinned Memory
-gpgpu_max_concurrent_kernel                    8 # maximum kernels that can run concurrently on GPU
-gpgpu_cflog_interval                    0 # Interval between each snapshot in control flow logger
-visualizer_enabled                     0 # Turn on visualizer output (1=On, 0=Off)
-visualizer_outputfile                 NULL # Specifies the output log file for visualizer
-visualizer_zlevel                      6 # Compression level of the visualizer output log (0=no comp, 9=highest)
-trace_enabled                          0 # Turn on traces
-trace_components                    none # comma seperated list of traces to enable. Complete list found in trace_streams.tup. Default none
-trace_sampling_core                    0 # The core which is printed using CORE_DPRINTF. Default 0
-trace_sampling_memory_partition                   -1 # The memory partition which is printed using MEMPART_DPRINTF. Default -1 (i.e. all)
-enable_ptx_file_line_stats                    1 # Turn on PTX source line statistic profiling. (1 = On)
-ptx_line_stats_filename gpgpu_inst_stats.txt # Output file for PTX source line statistics.
-save_embedded_ptx                      0 # saves ptx files embedded in binary as <n>.ptx
-keep                                   0 # keep intermediate files created by GPGPU-Sim when interfacing with external programs
-gpgpu_ptx_save_converted_ptxplus                    0 # Saved converted ptxplus to a file
-ptx_opcode_latency_int         4,13,4,5,145 # Opcode latencies for integers <ADD,MAX,MUL,MAD,DIV>Default 1,1,19,25,145
-ptx_opcode_latency_fp          4,13,4,5,39 # Opcode latencies for single precision floating points <ADD,MAX,MUL,MAD,DIV>Default 1,1,1,1,30
-ptx_opcode_latency_dp         8,19,8,8,330 # Opcode latencies for double precision floating points <ADD,MAX,MUL,MAD,DIV>Default 8,8,8,8,335
-ptx_opcode_initiation_int            1,2,2,1,8 # Opcode initiation intervals for integers <ADD,MAX,MUL,MAD,DIV>Default 1,1,4,4,32
-ptx_opcode_initiation_fp            1,2,1,1,4 # Opcode initiation intervals for single precision floating points <ADD,MAX,MUL,MAD,DIV>Default 1,1,1,1,5
-ptx_opcode_initiation_dp         8,16,8,8,130 # Opcode initiation intervals for double precision floating points <ADD,MAX,MUL,MAD,DIV>Default 8,8,8,8,130
DRAM Timing Options:
rows                                   64 # number of rows
nbk                                    16 # number of banks
CCD                                     2 # column to column delay
RRD                                     6 # minimal delay between activation of rows in different banks
RCD                                    12 # row to column delay
RAS                                    28 # time needed to activate row
RP                                     12 # time needed to precharge (deactivate) row
RC                                     40 # row cycle time
CDLR                                    5 # switching from write to read (changes tWTR)
WR                                     12 # last data-in to row precharge
CL                                     12 # CAS latency
WL                                      4 # Write latency
nbkgrp                                  4 # number of bank groups
CCDL                                    3 # column to column delay between accesses to different bank groups
RTPL                                    2 # read to precharge delay between accesses to different bank groups
Total number of memory sub partition = 16
addr_dec_mask[CHIP]  = 0000000000007000 	high:15 low:12
addr_dec_mask[BK]    = 0000000000078000 	high:19 low:15
addr_dec_mask[ROW]   = 000000007ff80000 	high:31 low:19
addr_dec_mask[COL]   = 0000000000000fff 	high:12 low:0
addr_dec_mask[BURST] = 000000000000003f 	high:6 low:0
sub_partition_id_mask = 0000000000008000
GPGPU-Sim uArch: clock freqs: 700000000.000000:700000000.000000:700000000.000000:924000000.000000:100000000.000000
GPGPU-Sim uArch: clock periods: 0.00000000142857142857:0.00000000142857142857:0.00000000142857142857:0.00000000108225108225:0.00000001000000000000
*** Initializing Memory Statistics ***
GPGPU-Sim uArch: interconnect node map (shaderID+MemID to icntID)
GPGPU-Sim uArch: Memory nodes ID start from index: 15
GPGPU-Sim uArch:    0   1   2   3   4
GPGPU-Sim uArch:    5   6   7   8   9
GPGPU-Sim uArch:   10  11  12  13  14
GPGPU-Sim uArch:   15  16  17  18  19
GPGPU-Sim uArch:   20  21  22  23  24
GPGPU-Sim uArch:   25  26  27  28  29
GPGPU-Sim uArch:   30
GPGPU-Sim uArch: interconnect node reverse map (icntID to shaderID+MemID)
GPGPU-Sim uArch: Memory nodes start from ID: 15
GPGPU-Sim uArch:    0   1   2   3   4
GPGPU-Sim uArch:    5   6   7   8   9
GPGPU-Sim uArch:   10  11  12  13  14
GPGPU-Sim uArch:   15  16  17  18  19
GPGPU-Sim uArch:   20  21  22  23  24
GPGPU-Sim uArch:   25  26  27  28  29
GPGPU-Sim uArch:   30
3acb47d6594478a8f23b825bee373876  /home/soumya/GPGPUSIM-CHANGE/test/RAY
GPGPU-Sim uArch: performance model initialization complete.
GPGPU-Sim PTX: __cudaRegisterFatBinary, fat_cubin_handle = 1, filename=rayTracing.cu
self exe links to: /home/soumya/GPGPUSIM-CHANGE/test/RAY
Running md5sum using "md5sum /home/soumya/GPGPUSIM-CHANGE/test/RAY "
Running cuobjdump using "$CUDA_INSTALL_PATH/bin/cuobjdump -ptx -elf -sass /home/soumya/GPGPUSIM-CHANGE/test/RAY > _cuobjdump_complete_output_AtH2An"
Parsing file _cuobjdump_complete_output_AtH2An
######### cuobjdump parser ########
## Adding new section PTX
Adding ptx filename: _cuobjdump_1.ptx
Adding arch: sm_30
Adding identifier: rayTracing.cu
## Adding new section ELF
Adding arch: sm_30
Adding identifier: rayTracing.cu
## Adding new section ELF
Adding arch: sm_20
Adding identifier: rayTracing.cu
## Adding new section PTX
Adding ptx filename: _cuobjdump_2.ptx
Adding arch: sm_20
Adding identifier: rayTracing.cu
## Adding new section ELF
Adding arch: sm_10
Adding identifier: rayTracing.cu
## Adding new section PTX
Adding ptx filename: _cuobjdump_3.ptx
Adding arch: sm_10
Adding identifier: rayTracing.cu
Done parsing!!!
GPGPU-Sim PTX: __cudaRegisterFunction _Z6renderPjP4Nodejjff : hostFun 0x0x40a210, fat_cubin_handle = 1
GPGPU-Sim PTX: allocating constant region for "MView" from 0x100 to 0x130 (global memory space) 1
GPGPU-Sim PTX: allocating constant region for "cnode" from 0x180 to 0x220 (global memory space) 2
GPGPU-Sim PTX: allocating stack frame region for .param "func_retval0" from 0x0 to 0xc
GPGPU-Sim PTX: allocating stack frame region for .param "_Zmi6float3S__param_0" from 0xc to 0x18
GPGPU-Sim PTX: allocating stack frame region for .param "_Zmi6float3S__param_1" from 0x18 to 0x24
GPGPU-Sim PTX: instruction assembly for function '_Zmi6float3S_'...   done.
GPGPU-Sim PTX: finding reconvergence points for '_Zmi6float3S_'...
GPGPU-Sim PTX: Finding dominators for '_Zmi6float3S_'...
GPGPU-Sim PTX: Finding immediate dominators for '_Zmi6float3S_'...
GPGPU-Sim PTX: Finding postdominators for '_Zmi6float3S_'...
GPGPU-Sim PTX: Finding immediate postdominators for '_Zmi6float3S_'...
GPGPU-Sim PTX: pre-decoding instructions for '_Zmi6float3S_'...
GPGPU-Sim PTX: reconvergence points for _Zmi6float3S_...
GPGPU-Sim PTX: ... end of reconvergence points for _Zmi6float3S_
GPGPU-Sim PTX: ... done pre-decoding instructions for '_Zmi6float3S_'.
GPGPU-Sim PTX: allocating stack frame region for .param "func_retval0" from 0x0 to 0xc
GPGPU-Sim PTX: allocating stack frame region for .param "_Z9normalize6float3_param_0" from 0xc to 0x18
GPGPU-Sim PTX: instruction assembly for function '_Z9normalize6float3'...   done.
GPGPU-Sim PTX: finding reconvergence points for '_Z9normalize6float3'...
GPGPU-Sim PTX: Finding dominators for '_Z9normalize6float3'...
GPGPU-Sim PTX: Finding immediate dominators for '_Z9normalize6float3'...
GPGPU-Sim PTX: Finding postdominators for '_Z9normalize6float3'...
GPGPU-Sim PTX: Finding immediate postdominators for '_Z9normalize6float3'...
GPGPU-Sim PTX: pre-decoding instructions for '_Z9normalize6float3'...
GPGPU-Sim PTX: reconvergence points for _Z9normalize6float3...
GPGPU-Sim PTX: ... end of reconvergence points for _Z9normalize6float3
GPGPU-Sim PTX: ... done pre-decoding instructions for '_Z9normalize6float3'.
GPGPU-Sim PTX: allocating stack frame region for .param "func_retval0" from 0x0 to 0x4
GPGPU-Sim PTX: allocating stack frame region for .param "_Z18intersectionSphere5Rayon6float3f_param_0" from 0x4 to 0x1c
GPGPU-Sim PTX: allocating stack frame region for .param "_Z18intersectionSphere5Rayon6float3f_param_1" from 0x1c to 0x28
GPGPU-Sim PTX: allocating stack frame region for .param "_Z18intersectionSphere5Rayon6float3f_param_2" from 0x28 to 0x2c
GPGPU-Sim PTX: instruction assembly for function '_Z18intersectionSphere5Rayon6float3f'...   done.
GPGPU-Sim PTX: finding reconvergence points for '_Z18intersectionSphere5Rayon6float3f'...
GPGPU-Sim PTX: Finding dominators for '_Z18intersectionSphere5Rayon6float3f'...
GPGPU-Sim PTX: Finding immediate dominators for '_Z18intersectionSphere5Rayon6float3f'...
GPGPU-Sim PTX: Finding postdominators for '_Z18intersectionSphere5Rayon6float3f'...
GPGPU-Sim PTX: Finding immediate postdominators for '_Z18intersectionSphere5Rayon6float3f'...
GPGPU-Sim PTX: pre-decoding instructions for '_Z18intersectionSphere5Rayon6float3f'...
GPGPU-Sim PTX: reconvergence points for _Z18intersectionSphere5Rayon6float3f...
GPGPU-Sim PTX:  1 (potential) branch divergence @  PC=0x1b8 (_1.ptx:122) @%p3 bra BB2_3;
GPGPU-Sim PTX:    immediate post dominator      @ 
GPGPU-Sim PTX:  2 (potential) branch divergence @  PC=0x1d8 (_1.ptx:129) @%p4 bra BB2_3;
GPGPU-Sim PTX:    immediate post dominator      @ 
GPGPU-Sim PTX: ... end of reconvergence points for _Z18intersectionSphere5Rayon6float3f
GPGPU-Sim PTX: ... done pre-decoding instructions for '_Z18intersectionSphere5Rayon6float3f'.
GPGPU-Sim PTX: allocating stack frame region for .param "func_retval0" from 0x0 to 0x4
GPGPU-Sim PTX: allocating stack frame region for .param "_Z16intersectionPlan5Rayon6float3S0__param_0" from 0x4 to 0x1c
GPGPU-Sim PTX: allocating stack frame region for .param "_Z16intersectionPlan5Rayon6float3S0__param_1" from 0x1c to 0x28
GPGPU-Sim PTX: allocating stack frame region for .param "_Z16intersectionPlan5Rayon6float3S0__param_2" from 0x28 to 0x34
GPGPU-Sim PTX: instruction assembly for function '_Z16intersectionPlan5Rayon6float3S0_'...   done.
GPGPU-Sim PTX: finding reconvergence points for '_Z16intersectionPlan5Rayon6float3S0_'...
GPGPU-Sim PTX: Finding dominators for '_Z16intersectionPlan5Rayon6float3S0_'...
GPGPU-Sim PTX: Finding immediate dominators for '_Z16intersectionPlan5Rayon6float3S0_'...
GPGPU-Sim PTX: Finding postdominators for '_Z16intersectionPlan5Rayon6float3S0_'...
GPGPU-Sim PTX: Finding immediate postdominators for '_Z16intersectionPlan5Rayon6float3S0_'...
GPGPU-Sim PTX: pre-decoding instructions for '_Z16intersectionPlan5Rayon6float3S0_'...
GPGPU-Sim PTX: reconvergence points for _Z16intersectionPlan5Rayon6float3S0_...
GPGPU-Sim PTX:  1 (potential) branch divergence @  PC=0x2c0 (_1.ptx:185) @%p1 bra BB3_2;
GPGPU-Sim PTX:    immediate post dominator      @ 
GPGPU-Sim PTX: ... end of reconvergence points for _Z16intersectionPlan5Rayon6float3S0_
GPGPU-Sim PTX: ... done pre-decoding instructions for '_Z16intersectionPlan5Rayon6float3S0_'.
GPGPU-Sim PTX: allocating stack frame region for .param "func_retval0" from 0x0 to 0xc
GPGPU-Sim PTX: allocating stack frame region for .param "_Z10getNormale6float3S__param_0" from 0xc to 0x18
GPGPU-Sim PTX: allocating stack frame region for .param "_Z10getNormale6float3S__param_1" from 0x18 to 0x24
GPGPU-Sim PTX: instruction assembly for function '_Z10getNormale6float3S_'...   done.
GPGPU-Sim PTX: finding reconvergence points for '_Z10getNormale6float3S_'...
GPGPU-Sim PTX: Finding dominators for '_Z10getNormale6float3S_'...
GPGPU-Sim PTX: Finding immediate dominators for '_Z10getNormale6float3S_'...
GPGPU-Sim PTX: Finding postdominators for '_Z10getNormale6float3S_'...
GPGPU-Sim PTX: Finding immediate postdominators for '_Z10getNormale6float3S_'...
GPGPU-Sim PTX: pre-decoding instructions for '_Z10getNormale6float3S_'...
GPGPU-Sim PTX: reconvergence points for _Z10getNormale6float3S_...
GPGPU-Sim PTX: ... end of reconvergence points for _Z10getNormale6float3S_
GPGPU-Sim PTX: ... done pre-decoding instructions for '_Z10getNormale6float3S_'.
GPGPU-Sim PTX: allocating stack frame region for .param "func_retval0" from 0x0 to 0xc
GPGPU-Sim PTX: allocating stack frame region for .param "_Z11getNormaleP6float3_param_0" from 0xc to 0x18
GPGPU-Sim PTX: instruction assembly for function '_Z11getNormaleP6float3'...   done.
GPGPU-Sim PTX: finding reconvergence points for '_Z11getNormaleP6float3'...
GPGPU-Sim PTX: Finding dominators for '_Z11getNormaleP6float3'...
GPGPU-Sim PTX: Finding immediate dominators for '_Z11getNormaleP6float3'...
GPGPU-Sim PTX: Finding postdominators for '_Z11getNormaleP6float3'...
GPGPU-Sim PTX: Finding immediate postdominators for '_Z11getNormaleP6float3'...
GPGPU-Sim PTX: pre-decoding instructions for '_Z11getNormaleP6float3'...
GPGPU-Sim PTX: reconvergence points for _Z11getNormaleP6float3...
GPGPU-Sim PTX: ... end of reconvergence points for _Z11getNormaleP6float3
GPGPU-Sim PTX: ... done pre-decoding instructions for '_Z11getNormaleP6float3'.
GPGPU-Sim PTX: allocating stack frame region for .param "func_retval0" from 0x0 to 0xc
GPGPU-Sim PTX: allocating stack frame region for .param "_Z3mul10matrice3x46float3_param_0" from 0xc to 0x3c
GPGPU-Sim PTX: allocating stack frame region for .param "_Z3mul10matrice3x46float3_param_1" from 0x3c to 0x48
GPGPU-Sim PTX: instruction assembly for function '_Z3mul10matrice3x46float3'...   done.
GPGPU-Sim PTX: finding reconvergence points for '_Z3mul10matrice3x46float3'...
GPGPU-Sim PTX: Finding dominators for '_Z3mul10matrice3x46float3'...
GPGPU-Sim PTX: Finding immediate dominators for '_Z3mul10matrice3x46float3'...
GPGPU-Sim PTX: Finding postdominators for '_Z3mul10matrice3x46float3'...
GPGPU-Sim PTX: Finding immediate postdominators for '_Z3mul10matrice3x46float3'...
GPGPU-Sim PTX: pre-decoding instructions for '_Z3mul10matrice3x46float3'...
GPGPU-Sim PTX: reconvergence points for _Z3mul10matrice3x46float3...
GPGPU-Sim PTX: ... end of reconvergence points for _Z3mul10matrice3x46float3
GPGPU-Sim PTX: ... done pre-decoding instructions for '_Z3mul10matrice3x46float3'.
GPGPU-Sim PTX: allocating stack frame region for .param "func_retval0" from 0x0 to 0x10
GPGPU-Sim PTX: allocating stack frame region for .param "_Z3mul10matrice3x46float4_param_0" from 0x10 to 0x40
GPGPU-Sim PTX: allocating stack frame region for .param "_Z3mul10matrice3x46float4_param_1" from 0x40 to 0x50
GPGPU-Sim PTX: instruction assembly for function '_Z3mul10matrice3x46float4'...   done.
GPGPU-Sim PTX: finding reconvergence points for '_Z3mul10matrice3x46float4'...
GPGPU-Sim PTX: Finding dominators for '_Z3mul10matrice3x46float4'...
GPGPU-Sim PTX: Finding immediate dominators for '_Z3mul10matrice3x46float4'...
GPGPU-Sim PTX: Finding postdominators for '_Z3mul10matrice3x46float4'...
GPGPU-Sim PTX: Finding immediate postdominators for '_Z3mul10matrice3x46float4'...
GPGPU-Sim PTX: pre-decoding instructions for '_Z3mul10matrice3x46float4'...
GPGPU-Sim PTX: reconvergence points for _Z3mul10matrice3x46float4...
GPGPU-Sim PTX: ... end of reconvergence points for _Z3mul10matrice3x46float4
GPGPU-Sim PTX: ... done pre-decoding instructions for '_Z3mul10matrice3x46float4'.
GPGPU-Sim PTX: allocating stack frame region for .param "func_retval0" from 0x0 to 0x4
GPGPU-Sim PTX: allocating stack frame region for .param "_Z14rgbaFloatToInt6float4_param_0" from 0x4 to 0x14
GPGPU-Sim PTX: instruction assembly for function '_Z14rgbaFloatToInt6float4'...   done.
GPGPU-Sim PTX: finding reconvergence points for '_Z14rgbaFloatToInt6float4'...
GPGPU-Sim PTX: Finding dominators for '_Z14rgbaFloatToInt6float4'...
GPGPU-Sim PTX: Finding immediate dominators for '_Z14rgbaFloatToInt6float4'...
GPGPU-Sim PTX: Finding postdominators for '_Z14rgbaFloatToInt6float4'...
GPGPU-Sim PTX: Finding immediate postdominators for '_Z14rgbaFloatToInt6float4'...
GPGPU-Sim PTX: pre-decoding instructions for '_Z14rgbaFloatToInt6float4'...
GPGPU-Sim PTX: reconvergence points for _Z14rgbaFloatToInt6float4...
GPGPU-Sim PTX: ... end of reconvergence points for _Z14rgbaFloatToInt6float4
GPGPU-Sim PTX: ... done pre-decoding instructions for '_Z14rgbaFloatToInt6float4'.
GPGPU-Sim PTX: allocating stack frame region for .param "func_retval0" from 0x0 to 0x4
GPGPU-Sim PTX: allocating stack frame region for .param "_Z12notShadowRayP4Node6float3S1_f_param_0" from 0x4 to 0xc
GPGPU-Sim PTX: allocating stack frame region for .param "_Z12notShadowRayP4Node6float3S1_f_param_1" from 0xc to 0x18
GPGPU-Sim PTX: allocating stack frame region for .param "_Z12notShadowRayP4Node6float3S1_f_param_2" from 0x18 to 0x24
GPGPU-Sim PTX: allocating stack frame region for .param "_Z12notShadowRayP4Node6float3S1_f_param_3" from 0x24 to 0x28
GPGPU-Sim PTX: instruction assembly for function '_Z12notShadowRayP4Node6float3S1_f'...   done.
GPGPU-Sim PTX: finding reconvergence points for '_Z12notShadowRayP4Node6float3S1_f'...
GPGPU-Sim PTX: Finding dominators for '_Z12notShadowRayP4Node6float3S1_f'...
GPGPU-Sim PTX: Finding immediate dominators for '_Z12notShadowRayP4Node6float3S1_f'...
GPGPU-Sim PTX: Finding postdominators for '_Z12notShadowRayP4Node6float3S1_f'...
GPGPU-Sim PTX: Finding immediate postdominators for '_Z12notShadowRayP4Node6float3S1_f'...
GPGPU-Sim PTX: pre-decoding instructions for '_Z12notShadowRayP4Node6float3S1_f'...
GPGPU-Sim PTX: reconvergence points for _Z12notShadowRayP4Node6float3S1_f...
GPGPU-Sim PTX:  1 (potential) branch divergence @  PC=0x7c8 (_1.ptx:471) @%p2 bra BB9_4;
GPGPU-Sim PTX:    immediate post dominator      @  PC=0x938 (_1.ptx:551) mov.f32 %f26, %f78;
GPGPU-Sim PTX:  2 (potential) branch divergence @  PC=0x810 (_1.ptx:486) @%p3 bra BB9_7;
GPGPU-Sim PTX:    immediate post dominator      @  PC=0x938 (_1.ptx:551) mov.f32 %f26, %f78;
GPGPU-Sim PTX:  3 (potential) branch divergence @  PC=0x868 (_1.ptx:505) bra.uni BB9_8;
GPGPU-Sim PTX:    immediate post dominator      @  PC=0x938 (_1.ptx:551) mov.f32 %f26, %f78;
GPGPU-Sim PTX:  4 (potential) branch divergence @  PC=0x8d8 (_1.ptx:529) @%p6 bra BB9_7;
GPGPU-Sim PTX:    immediate post dominator      @  PC=0x938 (_1.ptx:551) mov.f32 %f26, %f78;
GPGPU-Sim PTX:  5 (potential) branch divergence @  PC=0x8f8 (_1.ptx:536) @%p7 bra BB9_7;
GPGPU-Sim PTX:    immediate post dominator      @  PC=0x938 (_1.ptx:551) mov.f32 %f26, %f78;
GPGPU-Sim PTX:  6 (potential) branch divergence @  PC=0x928 (_1.ptx:545) bra.uni BB9_8;
GPGPU-Sim PTX:    immediate post dominator      @  PC=0x938 (_1.ptx:551) mov.f32 %f26, %f78;
GPGPU-Sim PTX:  7 (potential) branch divergence @  PC=0x948 (_1.ptx:554) @%p8 bra BB9_10;
GPGPU-Sim PTX:    immediate post dominator      @  PC=0x9a8 (_1.ptx:573) mov.f32 %f27, %f77;
GPGPU-Sim PTX:  8 (potential) branch divergence @  PC=0x988 (_1.ptx:563) @%p9 bra BB9_11;
GPGPU-Sim PTX:    immediate post dominator      @  PC=0x9a8 (_1.ptx:573) mov.f32 %f27, %f77;
GPGPU-Sim PTX:  9 (potential) branch divergence @  PC=0x998 (_1.ptx:567) bra.uni BB9_12;
GPGPU-Sim PTX:    immediate post dominator      @  PC=0x9a8 (_1.ptx:573) mov.f32 %f27, %f77;
GPGPU-Sim PTX: 10 (potential) branch divergence @  PC=0x9d0 (_1.ptx:581) @%p12 bra BB9_1;
GPGPU-Sim PTX:    immediate post dominator      @  PC=0x9d8 (_1.ptx:584) selp.u32 %r14, 1, 0, %p11;
GPGPU-Sim PTX: ... end of reconvergence points for _Z12notShadowRayP4Node6float3S1_f
GPGPU-Sim PTX: ... done pre-decoding instructions for '_Z12notShadowRayP4Node6float3S1_f'.
GPGPU-Sim PTX: allocating stack frame region for .param "func_retval0" from 0x0 to 0x4
GPGPU-Sim PTX: allocating stack frame region for .param "_Z15float2int_pow20f_param_0" from 0x4 to 0x8
GPGPU-Sim PTX: instruction assembly for function '_Z15float2int_pow20f'...   done.
GPGPU-Sim PTX: finding reconvergence points for '_Z15float2int_pow20f'...
GPGPU-Sim PTX: Finding dominators for '_Z15float2int_pow20f'...
GPGPU-Sim PTX: Finding immediate dominators for '_Z15float2int_pow20f'...
GPGPU-Sim PTX: Finding postdominators for '_Z15float2int_pow20f'...
GPGPU-Sim PTX: Finding immediate postdominators for '_Z15float2int_pow20f'...
GPGPU-Sim PTX: pre-decoding instructions for '_Z15float2int_pow20f'...
GPGPU-Sim PTX: reconvergence points for _Z15float2int_pow20f...
GPGPU-Sim PTX: ... end of reconvergence points for _Z15float2int_pow20f
GPGPU-Sim PTX: ... done pre-decoding instructions for '_Z15float2int_pow20f'.
GPGPU-Sim PTX: allocating stack frame region for .param "func_retval0" from 0x0 to 0x4
GPGPU-Sim PTX: allocating stack frame region for .param "_Z15float2int_pow50f_param_0" from 0x4 to 0x8
GPGPU-Sim PTX: instruction assembly for function '_Z15float2int_pow50f'...   done.
GPGPU-Sim PTX: finding reconvergence points for '_Z15float2int_pow50f'...
GPGPU-Sim PTX: Finding dominators for '_Z15float2int_pow50f'...
GPGPU-Sim PTX: Finding immediate dominators for '_Z15float2int_pow50f'...
GPGPU-Sim PTX: Finding postdominators for '_Z15float2int_pow50f'...
GPGPU-Sim PTX: Finding immediate postdominators for '_Z15float2int_pow50f'...
GPGPU-Sim PTX: pre-decoding instructions for '_Z15float2int_pow50f'...
GPGPU-Sim PTX: reconvergence points for _Z15float2int_pow50f...
GPGPU-Sim PTX: ... end of reconvergence points for _Z15float2int_pow50f
GPGPU-Sim PTX: ... done pre-decoding instructions for '_Z15float2int_pow50f'.
GPGPU-Sim PTX: allocating stack frame region for .local "__local_depot12" from 0x0 to 0x50
GPGPU-Sim PTX: instruction assembly for function '_Z6renderPjP4Nodejjff'...   done.
GPGPU-Sim PTX: finding reconvergence points for '_Z6renderPjP4Nodejjff'...
GPGPU-Sim PTX: Finding dominators for '_Z6renderPjP4Nodejjff'...
GPGPU-Sim PTX: Finding immediate dominators for '_Z6renderPjP4Nodejjff'...
GPGPU-Sim PTX: Finding postdominators for '_Z6renderPjP4Nodejjff'...
GPGPU-Sim PTX: Finding immediate postdominators for '_Z6renderPjP4Nodejjff'...
GPGPU-Sim PTX: pre-decoding instructions for '_Z6renderPjP4Nodejjff'...
GPGPU-Sim PTX: reconvergence points for _Z6renderPjP4Nodejjff...
GPGPU-Sim PTX:  1 (potential) branch divergence @  PC=0xd18 (_1.ptx:737) @%p10 bra BB12_2;
GPGPU-Sim PTX:    immediate post dominator      @ 
GPGPU-Sim PTX:  2 (potential) branch divergence @  PC=0xfb0 (_1.ptx:851) @%p12 bra BB12_6;
GPGPU-Sim PTX:    immediate post dominator      @  PC=0x1120 (_1.ptx:932) setp.lt.f32 %p18, %f694, 0f461C4000;
GPGPU-Sim PTX:  3 (potential) branch divergence @  PC=0xff8 (_1.ptx:866) @%p13 bra BB12_9;
GPGPU-Sim PTX:    immediate post dominator      @  PC=0x1120 (_1.ptx:932) setp.lt.f32 %p18, %f694, 0f461C4000;
GPGPU-Sim PTX:  4 (potential) branch divergence @  PC=0x1050 (_1.ptx:885) bra.uni BB12_10;
GPGPU-Sim PTX:    immediate post dominator      @  PC=0x1120 (_1.ptx:932) setp.lt.f32 %p18, %f694, 0f461C4000;
GPGPU-Sim PTX:  5 (potential) branch divergence @  PC=0x10c0 (_1.ptx:909) @%p16 bra BB12_9;
GPGPU-Sim PTX:    immediate post dominator      @  PC=0x1120 (_1.ptx:932) setp.lt.f32 %p18, %f694, 0f461C4000;
GPGPU-Sim PTX:  6 (potential) branch divergence @  PC=0x10e0 (_1.ptx:916) @%p17 bra BB12_9;
GPGPU-Sim PTX:    immediate post dominator      @  PC=0x1120 (_1.ptx:932) setp.lt.f32 %p18, %f694, 0f461C4000;
GPGPU-Sim PTX:  7 (potential) branch divergence @  PC=0x1110 (_1.ptx:925) bra.uni BB12_10;
GPGPU-Sim PTX:    immediate post dominator      @  PC=0x1120 (_1.ptx:932) setp.lt.f32 %p18, %f694, 0f461C4000;
GPGPU-Sim PTX:  8 (potential) branch divergence @  PC=0x1160 (_1.ptx:942) @%p21 bra BB12_13;
GPGPU-Sim PTX:    immediate post dominator      @  PC=0x12d0 (_1.ptx:1023) setp.lt.f32 %p27, %f695, %f68;
GPGPU-Sim PTX:  9 (potential) branch divergence @  PC=0x11a8 (_1.ptx:957) @%p22 bra BB12_16;
GPGPU-Sim PTX:    immediate post dominator      @  PC=0x12d0 (_1.ptx:1023) setp.lt.f32 %p27, %f695, %f68;
GPGPU-Sim PTX: 10 (potential) branch divergence @  PC=0x1200 (_1.ptx:976) bra.uni BB12_17;
GPGPU-Sim PTX:    immediate post dominator      @  PC=0x12d0 (_1.ptx:1023) setp.lt.f32 %p27, %f695, %f68;
GPGPU-Sim PTX: 11 (potential) branch divergence @  PC=0x1270 (_1.ptx:1000) @%p25 bra BB12_16;
GPGPU-Sim PTX:    immediate post dominator      @  PC=0x12d0 (_1.ptx:1023) setp.lt.f32 %p27, %f695, %f68;
GPGPU-Sim PTX: 12 (potential) branch divergence @  PC=0x1290 (_1.ptx:1007) @%p26 bra BB12_16;
GPGPU-Sim PTX:    immediate post dominator      @  PC=0x12d0 (_1.ptx:1023) setp.lt.f32 %p27, %f695, %f68;
GPGPU-Sim PTX: 13 (potential) branch divergence @  PC=0x12c0 (_1.ptx:1016) bra.uni BB12_17;
GPGPU-Sim PTX:    immediate post dominator      @  PC=0x12d0 (_1.ptx:1023) setp.lt.f32 %p27, %f695, %f68;
GPGPU-Sim PTX: 14 (potential) branch divergence @  PC=0x1310 (_1.ptx:1033) @%p30 bra BB12_20;
GPGPU-Sim PTX:    immediate post dominator      @  PC=0x1480 (_1.ptx:1114) setp.lt.f32 %p36, %f696, %f83;
GPGPU-Sim PTX: 15 (potential) branch divergence @  PC=0x1358 (_1.ptx:1048) @%p31 bra BB12_23;
GPGPU-Sim PTX:    immediate post dominator      @  PC=0x1480 (_1.ptx:1114) setp.lt.f32 %p36, %f696, %f83;
GPGPU-Sim PTX: 16 (potential) branch divergence @  PC=0x13b0 (_1.ptx:1067) bra.uni BB12_24;
GPGPU-Sim PTX:    immediate post dominator      @  PC=0x1480 (_1.ptx:1114) setp.lt.f32 %p36, %f696, %f83;
GPGPU-Sim PTX: 17 (potential) branch divergence @  PC=0x1420 (_1.ptx:1091) @%p34 bra BB12_23;
GPGPU-Sim PTX:    immediate post dominator      @  PC=0x1480 (_1.ptx:1114) setp.lt.f32 %p36, %f696, %f83;
GPGPU-Sim PTX: 18 (potential) branch divergence @  PC=0x1440 (_1.ptx:1098) @%p35 bra BB12_23;
GPGPU-Sim PTX:    immediate post dominator      @  PC=0x1480 (_1.ptx:1114) setp.lt.f32 %p36, %f696, %f83;
GPGPU-Sim PTX: 19 (potential) branch divergence @  PC=0x1470 (_1.ptx:1107) bra.uni BB12_24;
GPGPU-Sim PTX:    immediate post dominator      @  PC=0x1480 (_1.ptx:1114) setp.lt.f32 %p36, %f696, %f83;
GPGPU-Sim PTX: 20 (potential) branch divergence @  PC=0x14c0 (_1.ptx:1124) @%p39 bra BB12_27;
GPGPU-Sim PTX:    immediate post dominator      @  PC=0x1630 (_1.ptx:1205) setp.lt.f32 %p45, %f697, %f98;
GPGPU-Sim PTX: 21 (potential) branch divergence @  PC=0x1508 (_1.ptx:1139) @%p40 bra BB12_30;
GPGPU-Sim PTX:    immediate post dominator      @  PC=0x1630 (_1.ptx:1205) setp.lt.f32 %p45, %f697, %f98;
GPGPU-Sim PTX: 22 (potential) branch divergence @  PC=0x1560 (_1.ptx:1158) bra.uni BB12_31;
GPGPU-Sim PTX:    immediate post dominator      @  PC=0x1630 (_1.ptx:1205) setp.lt.f32 %p45, %f697, %f98;
GPGPU-Sim PTX: 23 (potential) branch divergence @  PC=0x15d0 (_1.ptx:1182) @%p43 bra BB12_30;
GPGPU-Sim PTX:    immediate post dominator      @  PC=0x1630 (_1.ptx:1205) setp.lt.f32 %p45, %f697, %f98;
GPGPU-Sim PTX: 24 (potential) branch divergence @  PC=0x15f0 (_1.ptx:1189) @%p44 bra BB12_30;
GPGPU-Sim PTX:    immediate post dominator      @  PC=0x1630 (_1.ptx:1205) setp.lt.f32 %p45, %f697, %f98;
GPGPU-Sim PTX: 25 (potential) branch divergence @  PC=0x1620 (_1.ptx:1198) bra.uni BB12_31;
GPGPU-Sim PTX:    immediate post dominator      @  PC=0x1630 (_1.ptx:1205) setp.lt.f32 %p45, %f697, %f98;
GPGPU-Sim PTX: 26 (potential) branch divergence @  PC=0x1670 (_1.ptx:1214) @%p50 bra BB12_32;
GPGPU-Sim PTX:    immediate post dominator      @  PC=0x22f8 (_1.ptx:1857) add.s32 %r130, %r130, 1;
GPGPU-Sim PTX: 27 (potential) branch divergence @  PC=0x1678 (_1.ptx:1215) bra.uni BB12_75;
GPGPU-Sim PTX:    immediate post dominator      @  PC=0x22f8 (_1.ptx:1857) add.s32 %r130, %r130, 1;
GPGPU-Sim PTX: 28 (potential) branch divergence @  PC=0x17b0 (_1.ptx:1267) @%p51 bra BB12_34;
GPGPU-Sim PTX:    immediate post dominator      @  PC=0x1830 (_1.ptx:1293) mov.f32 %f139, %f706;
GPGPU-Sim PTX: 29 (potential) branch divergence @  PC=0x17d8 (_1.ptx:1275) bra.uni BB12_35;
GPGPU-Sim PTX:    immediate post dominator      @  PC=0x1830 (_1.ptx:1293) mov.f32 %f139, %f706;
GPGPU-Sim PTX: 30 (potential) branch divergence @  PC=0x1868 (_1.ptx:1301) @%p52 bra BB12_37;
GPGPU-Sim PTX:    immediate post dominator      @  PC=0x18c0 (_1.ptx:1318) mov.f32 %f148, %f705;
GPGPU-Sim PTX: 31 (potential) branch divergence @  PC=0x1888 (_1.ptx:1306) bra.uni BB12_38;
GPGPU-Sim PTX:    immediate post dominator      @  PC=0x18c0 (_1.ptx:1318) mov.f32 %f148, %f705;
GPGPU-Sim PTX: 32 (potential) branch divergence @  PC=0x1930 (_1.ptx:1334) @%p53 bra BB12_74;
GPGPU-Sim PTX:    immediate post dominator      @  PC=0x2248 (_1.ptx:1828) add.f32 %f531, %f137, %f137;
GPGPU-Sim PTX: 33 (potential) branch divergence @  PC=0x1998 (_1.ptx:1355) @%p54 bra BB12_43;
GPGPU-Sim PTX:    immediate post dominator      @  PC=0x1b08 (_1.ptx:1435) mov.f32 %f169, %f709;
GPGPU-Sim PTX: 34 (potential) branch divergence @  PC=0x19e0 (_1.ptx:1370) @%p55 bra BB12_46;
GPGPU-Sim PTX:    immediate post dominator      @  PC=0x1b08 (_1.ptx:1435) mov.f32 %f169, %f709;
GPGPU-Sim PTX: 35 (potential) branch divergence @  PC=0x1a38 (_1.ptx:1389) bra.uni BB12_47;
GPGPU-Sim PTX:    immediate post dominator      @  PC=0x1b08 (_1.ptx:1435) mov.f32 %f169, %f709;
GPGPU-Sim PTX: 36 (potential) branch divergence @  PC=0x1aa8 (_1.ptx:1413) @%p58 bra BB12_46;
GPGPU-Sim PTX:    immediate post dominator      @  PC=0x1b08 (_1.ptx:1435) mov.f32 %f169, %f709;
GPGPU-Sim PTX: 37 (potential) branch divergence @  PC=0x1ac8 (_1.ptx:1420) @%p59 bra BB12_46;
GPGPU-Sim PTX:    immediate post dominator      @  PC=0x1b08 (_1.ptx:1435) mov.f32 %f169, %f709;
GPGPU-Sim PTX: 38 (potential) branch divergence @  PC=0x1af8 (_1.ptx:1429) bra.uni BB12_47;
GPGPU-Sim PTX:    immediate post dominator      @  PC=0x1b08 (_1.ptx:1435) mov.f32 %f169, %f709;
GPGPU-Sim PTX: 39 (potential) branch divergence @  PC=0x1b18 (_1.ptx:1438) @%p60 bra BB12_49;
GPGPU-Sim PTX:    immediate post dominator      @  PC=0x1b78 (_1.ptx:1457) mov.f32 %f170, %f708;
GPGPU-Sim PTX: 40 (potential) branch divergence @  PC=0x1b58 (_1.ptx:1447) @%p61 bra BB12_50;
GPGPU-Sim PTX:    immediate post dominator      @  PC=0x1b78 (_1.ptx:1457) mov.f32 %f170, %f708;
GPGPU-Sim PTX: 41 (potential) branch divergence @  PC=0x1b68 (_1.ptx:1451) bra.uni BB12_51;
GPGPU-Sim PTX:    immediate post dominator      @  PC=0x1b78 (_1.ptx:1457) mov.f32 %f170, %f708;
GPGPU-Sim PTX: 42 (potential) branch divergence @  PC=0x1ba0 (_1.ptx:1465) @%p64 bra BB12_40;
GPGPU-Sim PTX:    immediate post dominator      @  PC=0x1ba8 (_1.ptx:1468) setp.neu.f32 %p65, %f170, 0f00000000;
GPGPU-Sim PTX: 43 (potential) branch divergence @  PC=0x1bb0 (_1.ptx:1469) @%p65 bra BB12_74;
GPGPU-Sim PTX:    immediate post dominator      @  PC=0x2248 (_1.ptx:1828) add.f32 %f531, %f137, %f137;
GPGPU-Sim PTX: 44 (potential) branch divergence @  PC=0x1cd0 (_1.ptx:1516) @%p66 bra BB12_72;
GPGPU-Sim PTX:    immediate post dominator      @  PC=0x2200 (_1.ptx:1812) mov.f32 %f187, %f711;
GPGPU-Sim PTX: 45 (potential) branch divergence @  PC=0x1ce8 (_1.ptx:1522) @%p67 bra BB12_71;
GPGPU-Sim PTX:    immediate post dominator      @  PC=0x2200 (_1.ptx:1812) mov.f32 %f187, %f711;
GPGPU-Sim PTX: 46 (potential) branch divergence @  PC=0x1d00 (_1.ptx:1528) @%p68 bra BB12_71;
GPGPU-Sim PTX:    immediate post dominator      @  PC=0x2200 (_1.ptx:1812) mov.f32 %f187, %f711;
GPGPU-Sim PTX: 47 (potential) branch divergence @  PC=0x1d10 (_1.ptx:1532) @%p69 bra BB12_70;
GPGPU-Sim PTX:    immediate post dominator      @  PC=0x2200 (_1.ptx:1812) mov.f32 %f187, %f711;
GPGPU-Sim PTX: 48 (potential) branch divergence @  PC=0x1d20 (_1.ptx:1537) @%p70 bra BB12_68;
GPGPU-Sim PTX:    immediate post dominator      @  PC=0x2200 (_1.ptx:1812) mov.f32 %f187, %f711;
GPGPU-Sim PTX: 49 (potential) branch divergence @  PC=0x1d50 (_1.ptx:1549) @%p71 bra BB12_67;
GPGPU-Sim PTX:    immediate post dominator      @  PC=0x2200 (_1.ptx:1812) mov.f32 %f187, %f711;
GPGPU-Sim PTX: 50 (potential) branch divergence @  PC=0x1d68 (_1.ptx:1554) @%p72 bra BB12_66;
GPGPU-Sim PTX:    immediate post dominator      @  PC=0x2200 (_1.ptx:1812) mov.f32 %f187, %f711;
GPGPU-Sim PTX: 51 (potential) branch divergence @  PC=0x1d80 (_1.ptx:1559) @%p73 bra BB12_62;
GPGPU-Sim PTX:    immediate post dominator      @  PC=0x2200 (_1.ptx:1812) mov.f32 %f187, %f711;
GPGPU-Sim PTX: 52 (potential) branch divergence @  PC=0x1d98 (_1.ptx:1565) @%p74 bra BB12_65;
GPGPU-Sim PTX:    immediate post dominator      @  PC=0x2200 (_1.ptx:1812) mov.f32 %f187, %f711;
GPGPU-Sim PTX: 53 (potential) branch divergence @  PC=0x20d8 (_1.ptx:1740) @%p81 bra BB12_63;
GPGPU-Sim PTX:    immediate post dominator      @  PC=0x20f0 (_1.ptx:1749) mov.b32 %r87, %f710;
GPGPU-Sim PTX: 54 (potential) branch divergence @  PC=0x20e0 (_1.ptx:1741) bra.uni BB12_64;
GPGPU-Sim PTX:    immediate post dominator      @  PC=0x20f0 (_1.ptx:1749) mov.b32 %r87, %f710;
GPGPU-Sim PTX: 55 (potential) branch divergence @  PC=0x2120 (_1.ptx:1757) bra.uni BB12_73;
GPGPU-Sim PTX:    immediate post dominator      @  PC=0x2200 (_1.ptx:1812) mov.f32 %f187, %f711;
GPGPU-Sim PTX: 56 (potential) branch divergence @  PC=0x2138 (_1.ptx:1763) bra.uni BB12_73;
GPGPU-Sim PTX:    immediate post dominator      @  PC=0x2200 (_1.ptx:1812) mov.f32 %f187, %f711;
GPGPU-Sim PTX: 57 (potential) branch divergence @  PC=0x2170 (_1.ptx:1776) bra.uni BB12_73;
GPGPU-Sim PTX:    immediate post dominator      @  PC=0x2200 (_1.ptx:1812) mov.f32 %f187, %f711;
GPGPU-Sim PTX: 58 (potential) branch divergence @  PC=0x2190 (_1.ptx:1783) bra.uni BB12_73;
GPGPU-Sim PTX:    immediate post dominator      @  PC=0x2200 (_1.ptx:1812) mov.f32 %f187, %f711;
GPGPU-Sim PTX: 59 (potential) branch divergence @  PC=0x21a0 (_1.ptx:1788) @%p83 bra BB12_72;
GPGPU-Sim PTX:    immediate post dominator      @  PC=0x2200 (_1.ptx:1812) mov.f32 %f187, %f711;
GPGPU-Sim PTX: 60 (potential) branch divergence @  PC=0x21c8 (_1.ptx:1796) bra.uni BB12_73;
GPGPU-Sim PTX:    immediate post dominator      @  PC=0x2200 (_1.ptx:1812) mov.f32 %f187, %f711;
GPGPU-Sim PTX: 61 (potential) branch divergence @  PC=0x21d8 (_1.ptx:1800) bra.uni BB12_73;
GPGPU-Sim PTX:    immediate post dominator      @  PC=0x2200 (_1.ptx:1812) mov.f32 %f187, %f711;
GPGPU-Sim PTX: 62 (potential) branch divergence @  PC=0x21f0 (_1.ptx:1806) bra.uni BB12_73;
GPGPU-Sim PTX:    immediate post dominator      @  PC=0x2200 (_1.ptx:1812) mov.f32 %f187, %f711;
GPGPU-Sim PTX: 63 (potential) branch divergence @  PC=0x2318 (_1.ptx:1863) @%p87 bra BB12_3;
GPGPU-Sim PTX:    immediate post dominator      @  PC=0x2320 (_1.ptx:1865) add.s32 %r94, %r132, -1;
GPGPU-Sim PTX: 64 (potential) branch divergence @  PC=0x2330 (_1.ptx:1868) @%p88 bra BB12_79;
GPGPU-Sim PTX:    immediate post dominator      @  PC=0x23b8 (_1.ptx:1893) ld.local.v4.f32 {%f571, %f572, %f573, %f574}, [%rl3];
GPGPU-Sim PTX: 65 (potential) branch divergence @  PC=0x23b0 (_1.ptx:1889) @%p89 bra BB12_78;
GPGPU-Sim PTX:    immediate post dominator      @  PC=0x23b8 (_1.ptx:1893) ld.local.v4.f32 {%f571, %f572, %f573, %f574}, [%rl3];
GPGPU-Sim PTX: ... end of reconvergence points for _Z6renderPjP4Nodejjff
GPGPU-Sim PTX: ... done pre-decoding instructions for '_Z6renderPjP4Nodejjff'.
GPGPU-Sim PTX: allocating stack frame region for .param "_ZN4dim3C1Ejjj_param_0" from 0x0 to 0x8
GPGPU-Sim PTX: allocating stack frame region for .param "_ZN4dim3C1Ejjj_param_1" from 0x8 to 0xc
GPGPU-Sim PTX: allocating stack frame region for .param "_ZN4dim3C1Ejjj_param_2" from 0xc to 0x10
GPGPU-Sim PTX: allocating stack frame region for .param "_ZN4dim3C1Ejjj_param_3" from 0x10 to 0x14
GPGPU-Sim PTX: instruction assembly for function '_ZN4dim3C1Ejjj'...   done.
GPGPU-Sim PTX: finding reconvergence points for '_ZN4dim3C1Ejjj'...
GPGPU-Sim PTX: Finding dominators for '_ZN4dim3C1Ejjj'...
GPGPU-Sim PTX: Finding immediate dominators for '_ZN4dim3C1Ejjj'...
GPGPU-Sim PTX: Finding postdominators for '_ZN4dim3C1Ejjj'...
GPGPU-Sim PTX: Finding immediate postdominators for '_ZN4dim3C1Ejjj'...
GPGPU-Sim PTX: pre-decoding instructions for '_ZN4dim3C1Ejjj'...
GPGPU-Sim PTX: reconvergence points for _ZN4dim3C1Ejjj...
GPGPU-Sim PTX: ... end of reconvergence points for _ZN4dim3C1Ejjj
GPGPU-Sim PTX: ... done pre-decoding instructions for '_ZN4dim3C1Ejjj'.
GPGPU-Sim PTX: finished parsing EMBEDDED .ptx file _1.ptx
Adding _cuobjdump_2.ptx with cubin handle 1
GPGPU-Sim PTX: extracting embedded .ptx to temporary file "_ptx_KkJ7h9"
Running: cat _ptx_KkJ7h9 | sed 's/.version 1.5/.version 1.4/' | sed 's/, texmode_independent//' | sed 's/\(\.extern \.const\[1\] .b8 \w\+\)\[\]/\1\[1\]/' | sed 's/const\[.\]/const\[0\]/g' > _ptx2_QDQeZU
GPGPU-Sim PTX: generating ptxinfo using "$CUDA_INSTALL_PATH/bin/ptxas --gpu-name=sm_20 -v _ptx2_QDQeZU --output-file  /dev/null 2> _ptx_KkJ7h9info"
GPGPU-Sim PTX: Kernel '_Z6renderPjP4Nodejjff' : regs=43, lmem=0, smem=0, cmem=324
GPGPU-Sim PTX: removing ptxinfo using "rm -f _ptx_KkJ7h9 _ptx2_QDQeZU _ptx_KkJ7h9info"
GPGPU-Sim PTX: loading globals with explicit initializers... 
GPGPU-Sim PTX: finished loading globals (0 bytes total).
GPGPU-Sim PTX: loading constants with explicit initializers...  done.
GPGPU-Sim PTX: __cudaRegisterVar: hostVar = 0x643720; deviceAddress = MView; deviceName = MView
GPGPU-Sim PTX: __cudaRegisterVar: Registering const memory space of 48 bytes
GPGPU-Sim PTX registering constant MView (48 bytes) to name mapping
GPGPU-Sim PTX: __cudaRegisterVar: hostVar = 0x643760; deviceAddress = cnode; deviceName = cnode
GPGPU-Sim PTX: __cudaRegisterVar: Registering const memory space of 160 bytes
GPGPU-Sim PTX registering constant cnode (160 bytes) to name mapping
GPGPU-Sim PTX: cudaMemcpyToSymbol: symbol = 0x643760
GPGPU-Sim PTX: starting gpgpu_ptx_sim_memcpy_symbol with hostVar 0x0x643760
GPGPU-Sim PTX: gpgpu_ptx_sim_memcpy_symbol: Found PTX symbol w/ hostVar=0x643760
GPGPU-Sim PTX: gpgpu_ptx_sim_memcpy_symbol: copying const memory 160 bytes  to  symbol cnode+0 @0x180 ...
GPGPU-Sim PTX: cudaMemcpyToSymbol: symbol = 0x643720
GPGPU-Sim PTX: starting gpgpu_ptx_sim_memcpy_symbol with hostVar 0x0x643720
GPGPU-Sim PTX: gpgpu_ptx_sim_memcpy_symbol: Found PTX symbol w/ hostVar=0x643720
GPGPU-Sim PTX: gpgpu_ptx_sim_memcpy_symbol: copying const memory 48 bytes  to  symbol MView+0 @0x100 ...

GPGPU-Sim PTX: cudaLaunch for 0x0x40a210 (mode=performance simulation) on stream 0
GPGPU-Sim PTX: pushing kernel '_Z6renderPjP4Nodejjff' to stream 0, gridDim= (16,32,1) blockDim = (16,8,1) 
kernel '_Z6renderPjP4Nodejjff' transfer to GPU hardware scheduler
GPGPU-Sim uArch: Shader 1 bind to kernel 1 '_Z6renderPjP4Nodejjff'
GPGPU-Sim uArch: CTA/core = 5, limited by: regs
GPGPU-Sim uArch: core:  1, cta: 0 initialized @(1,0)
GPGPU-Sim uArch: Shader 2 bind to kernel 1 '_Z6renderPjP4Nodejjff'
GPGPU-Sim uArch: core:  2, cta: 0 initialized @(1,0)
GPGPU-Sim uArch: Shader 3 bind to kernel 1 '_Z6renderPjP4Nodejjff'
GPGPU-Sim uArch: core:  3, cta: 0 initialized @(1,0)
GPGPU-Sim uArch: Shader 4 bind to kernel 1 '_Z6renderPjP4Nodejjff'
GPGPU-Sim uArch: core:  4, cta: 0 initialized @(1,0)
GPGPU-Sim uArch: Shader 5 bind to kernel 1 '_Z6renderPjP4Nodejjff'
GPGPU-Sim uArch: core:  5, cta: 0 initialized @(1,0)
GPGPU-Sim uArch: Shader 6 bind to kernel 1 '_Z6renderPjP4Nodejjff'
GPGPU-Sim uArch: core:  6, cta: 0 initialized @(1,0)
GPGPU-Sim uArch: Shader 7 bind to kernel 1 '_Z6renderPjP4Nodejjff'
GPGPU-Sim uArch: core:  7, cta: 0 initialized @(1,0)
GPGPU-Sim uArch: Shader 8 bind to kernel 1 '_Z6renderPjP4Nodejjff'
GPGPU-Sim uArch: core:  8, cta: 0 initialized @(1,0)
GPGPU-Sim uArch: Shader 9 bind to kernel 1 '_Z6renderPjP4Nodejjff'
GPGPU-Sim uArch: core:  9, cta: 0 initialized @(1,0)
GPGPU-Sim uArch: Shader 10 bind to kernel 1 '_Z6renderPjP4Nodejjff'
GPGPU-Sim uArch: core: 10, cta: 0 initialized @(1,0)
GPGPU-Sim uArch: Shader 11 bind to kernel 1 '_Z6renderPjP4Nodejjff'
GPGPU-Sim uArch: core: 11, cta: 0 initialized @(1,0)
GPGPU-Sim uArch: Shader 12 bind to kernel 1 '_Z6renderPjP4Nodejjff'
GPGPU-Sim uArch: core: 12, cta: 0 initialized @(1,0)
GPGPU-Sim uArch: Shader 13 bind to kernel 1 '_Z6renderPjP4Nodejjff'
GPGPU-Sim uArch: core: 13, cta: 0 initialized @(1,0)
GPGPU-Sim uArch: Shader 14 bind to kernel 1 '_Z6renderPjP4Nodejjff'
GPGPU-Sim uArch: core: 14, cta: 0 initialized @(1,0)
GPGPU-Sim uArch: Shader 0 bind to kernel 1 '_Z6renderPjP4Nodejjff'
GPGPU-Sim uArch: core:  0, cta: 0 initialized @(1,0)
GPGPU-Sim uArch: core:  1, cta: 1 initialized @(2,0)
GPGPU-Sim uArch: core:  2, cta: 1 initialized @(2,0)
GPGPU-Sim uArch: core:  3, cta: 1 initialized @(2,0)
GPGPU-Sim uArch: core:  4, cta: 1 initialized @(2,0)
GPGPU-Sim uArch: core:  5, cta: 1 initialized @(2,0)
GPGPU-Sim uArch: core:  6, cta: 1 initialized @(2,0)
GPGPU-Sim uArch: core:  7, cta: 1 initialized @(2,0)
GPGPU-Sim uArch: core:  8, cta: 1 initialized @(2,0)
GPGPU-Sim uArch: core:  9, cta: 1 initialized @(2,0)
GPGPU-Sim uArch: core: 10, cta: 1 initialized @(2,0)
GPGPU-Sim uArch: core: 11, cta: 1 initialized @(2,0)
GPGPU-Sim uArch: core: 12, cta: 1 initialized @(2,0)
GPGPU-Sim uArch: core: 13, cta: 1 initialized @(2,0)
GPGPU-Sim uArch: core: 14, cta: 1 initialized @(2,0)
GPGPU-Sim uArch: core:  0, cta: 1 initialized @(2,0)
GPGPU-Sim uArch: core:  1, cta: 2 initialized @(3,0)
GPGPU-Sim uArch: core:  2, cta: 2 initialized @(3,0)
GPGPU-Sim uArch: core:  3, cta: 2 initialized @(3,0)
GPGPU-Sim uArch: core:  4, cta: 2 initialized @(3,0)
GPGPU-Sim uArch: core:  5, cta: 2 initialized @(3,0)
GPGPU-Sim uArch: core:  6, cta: 2 initialized @(3,0)
GPGPU-Sim uArch: core:  7, cta: 2 initialized @(3,0)
GPGPU-Sim uArch: core:  8, cta: 2 initialized @(3,0)
GPGPU-Sim uArch: core:  9, cta: 2 initialized @(3,0)
GPGPU-Sim uArch: core: 10, cta: 2 initialized @(3,0)
GPGPU-Sim uArch: core: 11, cta: 2 initialized @(3,0)
GPGPU-Sim uArch: core: 12, cta: 2 initialized @(3,0)
GPGPU-Sim uArch: core: 13, cta: 2 initialized @(3,0)
GPGPU-Sim uArch: core: 14, cta: 2 initialized @(3,0)
GPGPU-Sim uArch: core:  0, cta: 2 initialized @(3,0)
GPGPU-Sim uArch: core:  1, cta: 3 initialized @(4,0)
GPGPU-Sim uArch: core:  2, cta: 3 initialized @(4,0)
GPGPU-Sim uArch: core:  3, cta: 3 initialized @(4,0)
GPGPU-Sim uArch: core:  4, cta: 3 initialized @(4,0)
GPGPU-Sim uArch: core:  5, cta: 3 initialized @(4,0)
GPGPU-Sim uArch: core:  6, cta: 3 initialized @(4,0)
GPGPU-Sim uArch: core:  7, cta: 3 initialized @(4,0)
GPGPU-Sim uArch: core:  8, cta: 3 initialized @(4,0)
GPGPU-Sim uArch: core:  9, cta: 3 initialized @(4,0)
GPGPU-Sim uArch: core: 10, cta: 3 initialized @(4,0)
GPGPU-Sim uArch: core: 11, cta: 3 initialized @(4,0)
GPGPU-Sim uArch: core: 12, cta: 3 initialized @(4,0)
GPGPU-Sim uArch: core: 13, cta: 3 initialized @(4,0)
GPGPU-Sim uArch: core: 14, cta: 3 initialized @(4,0)
GPGPU-Sim uArch: core:  0, cta: 3 initialized @(4,0)
GPGPU-Sim uArch: core:  1, cta: 4 initialized @(5,0)
GPGPU-Sim uArch: core:  2, cta: 4 initialized @(5,0)
GPGPU-Sim uArch: core:  3, cta: 4 initialized @(5,0)
GPGPU-Sim uArch: core:  4, cta: 4 initialized @(5,0)
GPGPU-Sim uArch: core:  5, cta: 4 initialized @(5,0)
GPGPU-Sim uArch: core:  6, cta: 4 initialized @(5,0)
GPGPU-Sim uArch: core:  7, cta: 4 initialized @(5,0)
GPGPU-Sim uArch: core:  8, cta: 4 initialized @(5,0)
GPGPU-Sim uArch: core:  9, cta: 4 initialized @(5,0)
GPGPU-Sim uArch: core: 10, cta: 4 initialized @(5,0)
GPGPU-Sim uArch: core: 11, cta: 4 initialized @(5,0)
GPGPU-Sim uArch: core: 12, cta: 4 initialized @(5,0)
GPGPU-Sim uArch: core: 13, cta: 4 initialized @(5,0)
GPGPU-Sim uArch: core: 14, cta: 4 initialized @(5,0)
GPGPU-Sim uArch: core:  0, cta: 4 initialized @(5,0)
GPGPU-Sim uArch: cycles simulated: 500  inst.: 9600 (ipc=19.2) sim_rate=9600 (inst/sec) elapsed = 0:0:00:01 / Wed Mar  3 10:44:17 2021
GPGPU-Sim PTX: 100000 instructions simulated : ctaid=(12,2,0) tid=(15,3,0)
GPGPU-Sim uArch: cycles simulated: 3000  inst.: 196352 (ipc=65.5) sim_rate=98176 (inst/sec) elapsed = 0:0:00:02 / Wed Mar  3 10:44:18 2021
GPGPU-Sim PTX: 200000 instructions simulated : ctaid=(2,0,0) tid=(15,5,0)
GPGPU-Sim uArch: cycles simulated: 6000  inst.: 225248 (ipc=37.5) sim_rate=75082 (inst/sec) elapsed = 0:0:00:03 / Wed Mar  3 10:44:19 2021
GPGPU-Sim uArch: cycles simulated: 8500  inst.: 228928 (ipc=26.9) sim_rate=57232 (inst/sec) elapsed = 0:0:00:04 / Wed Mar  3 10:44:20 2021
GPGPU-Sim uArch: cycles simulated: 11500  inst.: 231904 (ipc=20.2) sim_rate=46380 (inst/sec) elapsed = 0:0:00:05 / Wed Mar  3 10:44:21 2021
GPGPU-Sim uArch: cycles simulated: 14500  inst.: 232608 (ipc=16.0) sim_rate=38768 (inst/sec) elapsed = 0:0:00:06 / Wed Mar  3 10:44:22 2021
GPGPU-Sim uArch: cycles simulated: 17500  inst.: 242496 (ipc=13.9) sim_rate=34642 (inst/sec) elapsed = 0:0:00:07 / Wed Mar  3 10:44:23 2021
GPGPU-Sim uArch: cycles simulated: 20000  inst.: 251264 (ipc=12.6) sim_rate=31408 (inst/sec) elapsed = 0:0:00:08 / Wed Mar  3 10:44:24 2021
GPGPU-Sim uArch: cycles simulated: 23000  inst.: 251680 (ipc=10.9) sim_rate=27964 (inst/sec) elapsed = 0:0:00:09 / Wed Mar  3 10:44:25 2021
GPGPU-Sim uArch: cycles simulated: 25500  inst.: 254496 (ipc=10.0) sim_rate=25449 (inst/sec) elapsed = 0:0:00:10 / Wed Mar  3 10:44:26 2021
GPGPU-Sim uArch: cycles simulated: 28500  inst.: 256224 (ipc= 9.0) sim_rate=23293 (inst/sec) elapsed = 0:0:00:11 / Wed Mar  3 10:44:27 2021
GPGPU-Sim PTX: 300000 instructions simulated : ctaid=(2,1,0) tid=(15,5,0)
GPGPU-Sim uArch: cycles simulated: 31000  inst.: 299776 (ipc= 9.7) sim_rate=24981 (inst/sec) elapsed = 0:0:00:12 / Wed Mar  3 10:44:28 2021
GPGPU-Sim uArch: cycles simulated: 34000  inst.: 339712 (ipc=10.0) sim_rate=26131 (inst/sec) elapsed = 0:0:00:13 / Wed Mar  3 10:44:29 2021
GPGPU-Sim uArch: cycles simulated: 37000  inst.: 340416 (ipc= 9.2) sim_rate=24315 (inst/sec) elapsed = 0:0:00:14 / Wed Mar  3 10:44:30 2021
GPGPU-Sim uArch: cycles simulated: 39500  inst.: 340416 (ipc= 8.6) sim_rate=22694 (inst/sec) elapsed = 0:0:00:15 / Wed Mar  3 10:44:31 2021
GPGPU-Sim PTX: 400000 instructions simulated : ctaid=(3,2,0) tid=(15,7,0)
GPGPU-Sim uArch: cycles simulated: 42500  inst.: 443136 (ipc=10.4) sim_rate=27696 (inst/sec) elapsed = 0:0:00:16 / Wed Mar  3 10:44:32 2021
GPGPU-Sim uArch: cycles simulated: 45500  inst.: 450688 (ipc= 9.9) sim_rate=26511 (inst/sec) elapsed = 0:0:00:17 / Wed Mar  3 10:44:33 2021
GPGPU-Sim uArch: cycles simulated: 48500  inst.: 450688 (ipc= 9.3) sim_rate=25038 (inst/sec) elapsed = 0:0:00:18 / Wed Mar  3 10:44:34 2021
GPGPU-Sim uArch: cycles simulated: 51500  inst.: 457312 (ipc= 8.9) sim_rate=24069 (inst/sec) elapsed = 0:0:00:19 / Wed Mar  3 10:44:35 2021
GPGPU-Sim PTX: 500000 instructions simulated : ctaid=(7,4,0) tid=(15,1,0)
GPGPU-Sim PTX: 600000 instructions simulated : ctaid=(4,3,0) tid=(15,1,0)
GPGPU-Sim uArch: cycles simulated: 54500  inst.: 600128 (ipc=11.0) sim_rate=30006 (inst/sec) elapsed = 0:0:00:20 / Wed Mar  3 10:44:36 2021
GPGPU-Sim uArch: cycles simulated: 57500  inst.: 613632 (ipc=10.7) sim_rate=29220 (inst/sec) elapsed = 0:0:00:21 / Wed Mar  3 10:44:37 2021
GPGPU-Sim uArch: cycles simulated: 61000  inst.: 645152 (ipc=10.6) sim_rate=29325 (inst/sec) elapsed = 0:0:00:22 / Wed Mar  3 10:44:38 2021
GPGPU-Sim uArch: cycles simulated: 64000  inst.: 678080 (ipc=10.6) sim_rate=29481 (inst/sec) elapsed = 0:0:00:23 / Wed Mar  3 10:44:39 2021
GPGPU-Sim PTX: 700000 instructions simulated : ctaid=(9,3,0) tid=(15,3,0)
GPGPU-Sim uArch: cycles simulated: 67500  inst.: 703968 (ipc=10.4) sim_rate=29332 (inst/sec) elapsed = 0:0:00:24 / Wed Mar  3 10:44:40 2021
GPGPU-Sim uArch: cycles simulated: 71000  inst.: 704128 (ipc= 9.9) sim_rate=28165 (inst/sec) elapsed = 0:0:00:25 / Wed Mar  3 10:44:41 2021
GPGPU-Sim uArch: cycles simulated: 74500  inst.: 767008 (ipc=10.3) sim_rate=29500 (inst/sec) elapsed = 0:0:00:26 / Wed Mar  3 10:44:42 2021
GPGPU-Sim uArch: cycles simulated: 78000  inst.: 769312 (ipc= 9.9) sim_rate=28493 (inst/sec) elapsed = 0:0:00:27 / Wed Mar  3 10:44:43 2021
GPGPU-Sim uArch: cycles simulated: 82000  inst.: 769312 (ipc= 9.4) sim_rate=27475 (inst/sec) elapsed = 0:0:00:28 / Wed Mar  3 10:44:44 2021
GPGPU-Sim PTX: 800000 instructions simulated : ctaid=(7,1,0) tid=(15,3,0)
GPGPU-Sim PTX: 900000 instructions simulated : ctaid=(12,2,0) tid=(15,7,0)
GPGPU-Sim uArch: cycles simulated: 85000  inst.: 935104 (ipc=11.0) sim_rate=32244 (inst/sec) elapsed = 0:0:00:29 / Wed Mar  3 10:44:45 2021
GPGPU-Sim uArch: cycles simulated: 89000  inst.: 935104 (ipc=10.5) sim_rate=31170 (inst/sec) elapsed = 0:0:00:30 / Wed Mar  3 10:44:46 2021
GPGPU-Sim PTX: 1000000 instructions simulated : ctaid=(10,0,0) tid=(15,1,0)
GPGPU-Sim PTX: 1100000 instructions simulated : ctaid=(14,0,0) tid=(15,3,0)
GPGPU-Sim PTX: WARNING (_1.ptx:936) ** reading undefined register '%r129' (cuid:0). Setting to 0X00000000. This is okay if you are simulating the native ISA
GPGPU-Sim uArch: cycles simulated: 92000  inst.: 1153152 (ipc=12.5) sim_rate=37198 (inst/sec) elapsed = 0:0:00:31 / Wed Mar  3 10:44:47 2021
GPGPU-Sim PTX: 1200000 instructions simulated : ctaid=(1,0,0) tid=(15,7,0)
GPGPU-Sim PTX: 1300000 instructions simulated : ctaid=(15,1,0) tid=(15,7,0)
GPGPU-Sim PTX: 1400000 instructions simulated : ctaid=(12,2,0) tid=(15,7,0)
GPGPU-Sim PTX: 1500000 instructions simulated : ctaid=(7,3,0) tid=(15,1,0)
GPGPU-Sim PTX: 1600000 instructions simulated : ctaid=(4,1,0) tid=(15,1,0)
GPGPU-Sim uArch: cycles simulated: 93500  inst.: 1655456 (ipc=17.7) sim_rate=51733 (inst/sec) elapsed = 0:0:00:32 / Wed Mar  3 10:44:48 2021
GPGPU-Sim PTX: 1700000 instructions simulated : ctaid=(9,1,0) tid=(15,7,0)
GPGPU-Sim PTX: 1800000 instructions simulated : ctaid=(5,1,0) tid=(15,7,0)
GPGPU-Sim PTX: 1900000 instructions simulated : ctaid=(4,3,0) tid=(15,3,0)
GPGPU-Sim PTX: 2000000 instructions simulated : ctaid=(7,4,0) tid=(15,5,0)
GPGPU-Sim PTX: 2100000 instructions simulated : ctaid=(15,0,0) tid=(15,1,0)
GPGPU-Sim uArch: cycles simulated: 95500  inst.: 2132768 (ipc=22.3) sim_rate=64629 (inst/sec) elapsed = 0:0:00:33 / Wed Mar  3 10:44:49 2021
GPGPU-Sim PTX: 2200000 instructions simulated : ctaid=(12,0,0) tid=(15,3,0)
GPGPU-Sim PTX: 2300000 instructions simulated : ctaid=(13,0,0) tid=(15,1,0)
GPGPU-Sim PTX: 2400000 instructions simulated : ctaid=(7,0,0) tid=(15,3,0)
GPGPU-Sim PTX: 2500000 instructions simulated : ctaid=(10,0,0) tid=(15,1,0)
GPGPU-Sim PTX: 2600000 instructions simulated : ctaid=(8,3,0) tid=(15,7,0)
GPGPU-Sim PTX: 2700000 instructions simulated : ctaid=(2,4,0) tid=(15,1,0)
GPGPU-Sim PTX: 2800000 instructions simulated : ctaid=(0,0,0) tid=(15,3,0)
GPGPU-Sim uArch: cycles simulated: 97500  inst.: 2804800 (ipc=28.8) sim_rate=82494 (inst/sec) elapsed = 0:0:00:34 / Wed Mar  3 10:44:50 2021
GPGPU-Sim uArch: cycles simulated: 100500  inst.: 2819040 (ipc=28.1) sim_rate=80544 (inst/sec) elapsed = 0:0:00:35 / Wed Mar  3 10:44:51 2021
GPGPU-Sim uArch: cycles simulated: 104500  inst.: 2819040 (ipc=27.0) sim_rate=78306 (inst/sec) elapsed = 0:0:00:36 / Wed Mar  3 10:44:52 2021
GPGPU-Sim PTX: 2900000 instructions simulated : ctaid=(12,0,0) tid=(15,7,0)
GPGPU-Sim PTX: 3000000 instructions simulated : ctaid=(11,3,0) tid=(15,1,0)
GPGPU-Sim uArch: cycles simulated: 108000  inst.: 2966400 (ipc=27.5) sim_rate=80172 (inst/sec) elapsed = 0:0:00:37 / Wed Mar  3 10:44:53 2021
GPGPU-Sim PTX: 3100000 instructions simulated : ctaid=(4,4,0) tid=(15,5,0)
GPGPU-Sim PTX: 3200000 instructions simulated : ctaid=(2,4,0) tid=(15,5,0)
GPGPU-Sim PTX: 3300000 instructions simulated : ctaid=(11,0,0) tid=(15,5,0)
GPGPU-Sim uArch: cycles simulated: 111500  inst.: 3276704 (ipc=29.4) sim_rate=86229 (inst/sec) elapsed = 0:0:00:38 / Wed Mar  3 10:44:54 2021
GPGPU-Sim PTX: 3400000 instructions simulated : ctaid=(5,3,0) tid=(15,7,0)
GPGPU-Sim PTX: 3500000 instructions simulated : ctaid=(15,0,0) tid=(14,7,0)
GPGPU-Sim PTX: 3600000 instructions simulated : ctaid=(13,3,0) tid=(15,2,0)
GPGPU-Sim PTX: 3700000 instructions simulated : ctaid=(12,2,0) tid=(15,6,0)
GPGPU-Sim PTX: 3800000 instructions simulated : ctaid=(3,2,0) tid=(15,0,0)
GPGPU-Sim PTX: 3900000 instructions simulated : ctaid=(9,3,0) tid=(15,6,0)
GPGPU-Sim PTX: 4000000 instructions simulated : ctaid=(4,0,0) tid=(15,4,0)
GPGPU-Sim PTX: 4100000 instructions simulated : ctaid=(6,2,0) tid=(6,1,0)
GPGPU-Sim PTX: 4200000 instructions simulated : ctaid=(3,0,0) tid=(14,0,0)
GPGPU-Sim PTX: 4300000 instructions simulated : ctaid=(1,4,0) tid=(14,2,0)
GPGPU-Sim uArch: cycles simulated: 113000  inst.: 4239158 (ipc=37.5) sim_rate=108696 (inst/sec) elapsed = 0:0:00:39 / Wed Mar  3 10:44:55 2021
GPGPU-Sim PTX: 4400000 instructions simulated : ctaid=(14,2,0) tid=(13,6,0)
GPGPU-Sim PTX: 4500000 instructions simulated : ctaid=(0,0,0) tid=(11,1,0)
GPGPU-Sim uArch: cycles simulated: 115000  inst.: 4381739 (ipc=38.1) sim_rate=109543 (inst/sec) elapsed = 0:0:00:40 / Wed Mar  3 10:44:56 2021
GPGPU-Sim uArch: cycles simulated: 118000  inst.: 4390347 (ipc=37.2) sim_rate=107081 (inst/sec) elapsed = 0:0:00:41 / Wed Mar  3 10:44:57 2021
GPGPU-Sim uArch: cycles simulated: 120500  inst.: 4398795 (ipc=36.5) sim_rate=104733 (inst/sec) elapsed = 0:0:00:42 / Wed Mar  3 10:44:58 2021
GPGPU-Sim uArch: cycles simulated: 123500  inst.: 4408747 (ipc=35.7) sim_rate=102529 (inst/sec) elapsed = 0:0:00:43 / Wed Mar  3 10:44:59 2021
GPGPU-Sim uArch: cycles simulated: 126000  inst.: 4422667 (ipc=35.1) sim_rate=100515 (inst/sec) elapsed = 0:0:00:44 / Wed Mar  3 10:45:00 2021
GPGPU-Sim uArch: cycles simulated: 128500  inst.: 4441579 (ipc=34.6) sim_rate=98701 (inst/sec) elapsed = 0:0:00:45 / Wed Mar  3 10:45:01 2021
GPGPU-Sim PTX: 4600000 instructions simulated : ctaid=(11,2,0) tid=(11,7,0)
GPGPU-Sim uArch: cycles simulated: 131500  inst.: 4461003 (ipc=33.9) sim_rate=96978 (inst/sec) elapsed = 0:0:00:46 / Wed Mar  3 10:45:02 2021
GPGPU-Sim uArch: cycles simulated: 134500  inst.: 4478731 (ipc=33.3) sim_rate=95292 (inst/sec) elapsed = 0:0:00:47 / Wed Mar  3 10:45:03 2021
GPGPU-Sim uArch: cycles simulated: 137500  inst.: 4492555 (ipc=32.7) sim_rate=93594 (inst/sec) elapsed = 0:0:00:48 / Wed Mar  3 10:45:04 2021
GPGPU-Sim PTX: 4700000 instructions simulated : ctaid=(8,4,0) tid=(11,5,0)
GPGPU-Sim uArch: cycles simulated: 140000  inst.: 4554315 (ipc=32.5) sim_rate=92945 (inst/sec) elapsed = 0:0:00:49 / Wed Mar  3 10:45:05 2021
GPGPU-Sim PTX: 4800000 instructions simulated : ctaid=(13,0,0) tid=(11,7,0)
GPGPU-Sim PTX: 4900000 instructions simulated : ctaid=(7,4,0) tid=(11,3,0)
GPGPU-Sim uArch: cycles simulated: 143000  inst.: 4726603 (ipc=33.1) sim_rate=94532 (inst/sec) elapsed = 0:0:00:50 / Wed Mar  3 10:45:06 2021
GPGPU-Sim PTX: 5000000 instructions simulated : ctaid=(0,3,0) tid=(11,1,0)
GPGPU-Sim uArch: cycles simulated: 145000  inst.: 4875659 (ipc=33.6) sim_rate=95601 (inst/sec) elapsed = 0:0:00:51 / Wed Mar  3 10:45:07 2021
GPGPU-Sim PTX: 5100000 instructions simulated : ctaid=(8,3,0) tid=(11,3,0)
GPGPU-Sim PTX: 5200000 instructions simulated : ctaid=(5,4,0) tid=(11,7,0)
GPGPU-Sim uArch: cycles simulated: 148500  inst.: 5025995 (ipc=33.8) sim_rate=96653 (inst/sec) elapsed = 0:0:00:52 / Wed Mar  3 10:45:08 2021
GPGPU-Sim PTX: 5300000 instructions simulated : ctaid=(0,1,0) tid=(11,3,0)
GPGPU-Sim PTX: 5400000 instructions simulated : ctaid=(4,1,0) tid=(11,3,0)
GPGPU-Sim PTX: 5500000 instructions simulated : ctaid=(11,1,0) tid=(11,7,0)
GPGPU-Sim PTX: 5600000 instructions simulated : ctaid=(0,4,0) tid=(11,3,0)
GPGPU-Sim PTX: 5700000 instructions simulated : ctaid=(10,1,0) tid=(11,5,0)
GPGPU-Sim PTX: 5800000 instructions simulated : ctaid=(9,0,0) tid=(11,5,0)
GPGPU-Sim uArch: cycles simulated: 150500  inst.: 5607179 (ipc=37.3) sim_rate=105795 (inst/sec) elapsed = 0:0:00:53 / Wed Mar  3 10:45:09 2021
GPGPU-Sim PTX: 5900000 instructions simulated : ctaid=(7,0,0) tid=(11,7,0)
GPGPU-Sim PTX: 6000000 instructions simulated : ctaid=(15,3,0) tid=(11,1,0)
GPGPU-Sim PTX: 6100000 instructions simulated : ctaid=(4,3,0) tid=(11,5,0)
GPGPU-Sim PTX: 6200000 instructions simulated : ctaid=(0,1,0) tid=(11,5,0)
GPGPU-Sim PTX: 6300000 instructions simulated : ctaid=(10,4,0) tid=(11,5,0)
GPGPU-Sim uArch: cycles simulated: 152000  inst.: 6108011 (ipc=40.2) sim_rate=113111 (inst/sec) elapsed = 0:0:00:54 / Wed Mar  3 10:45:10 2021
GPGPU-Sim PTX: 6400000 instructions simulated : ctaid=(9,0,0) tid=(11,7,0)
GPGPU-Sim PTX: 6500000 instructions simulated : ctaid=(6,3,0) tid=(11,7,0)
GPGPU-Sim PTX: 6600000 instructions simulated : ctaid=(4,3,0) tid=(11,5,0)
GPGPU-Sim PTX: 6700000 instructions simulated : ctaid=(10,1,0) tid=(11,1,0)
GPGPU-Sim PTX: 6800000 instructions simulated : ctaid=(7,3,0) tid=(12,3,0)
GPGPU-Sim PTX: 6900000 instructions simulated : ctaid=(1,1,0) tid=(15,7,0)
GPGPU-Sim PTX: 7000000 instructions simulated : ctaid=(3,3,0) tid=(0,1,0)
GPGPU-Sim uArch: cycles simulated: 153000  inst.: 6797542 (ipc=44.4) sim_rate=123591 (inst/sec) elapsed = 0:0:00:55 / Wed Mar  3 10:45:11 2021
GPGPU-Sim PTX: 7100000 instructions simulated : ctaid=(13,3,0) tid=(1,0,0)
GPGPU-Sim PTX: 7200000 instructions simulated : ctaid=(10,2,0) tid=(3,5,0)
GPGPU-Sim PTX: 7300000 instructions simulated : ctaid=(8,2,0) tid=(13,7,0)
GPGPU-Sim PTX: 7400000 instructions simulated : ctaid=(4,2,0) tid=(9,3,0)
GPGPU-Sim PTX: 7500000 instructions simulated : ctaid=(7,4,0) tid=(3,6,0)
GPGPU-Sim PTX: 7600000 instructions simulated : ctaid=(3,2,0) tid=(3,7,0)
GPGPU-Sim PTX: 7700000 instructions simulated : ctaid=(5,1,0) tid=(5,5,0)
GPGPU-Sim PTX: 7800000 instructions simulated : ctaid=(6,3,0) tid=(15,0,0)
GPGPU-Sim PTX: 7900000 instructions simulated : ctaid=(8,0,0) tid=(2,2,0)
GPGPU-Sim uArch: cycles simulated: 154500  inst.: 7651877 (ipc=49.5) sim_rate=136640 (inst/sec) elapsed = 0:0:00:56 / Wed Mar  3 10:45:12 2021
GPGPU-Sim uArch: cycles simulated: 156500  inst.: 7679562 (ipc=49.1) sim_rate=134729 (inst/sec) elapsed = 0:0:00:57 / Wed Mar  3 10:45:13 2021
GPGPU-Sim uArch: Shader 4 finished CTA #3 (157405,0), 4 CTAs running
GPGPU-Sim uArch: core:  4, cta: 3 initialized @(157406,0)
GPGPU-Sim uArch: Shader 4 finished CTA #4 (158564,0), 4 CTAs running
GPGPU-Sim uArch: core:  4, cta: 4 initialized @(158565,0)
GPGPU-Sim uArch: Shader 3 finished CTA #4 (158568,0), 4 CTAs running
GPGPU-Sim uArch: core:  3, cta: 4 initialized @(158569,0)
GPGPU-Sim uArch: Shader 0 finished CTA #3 (159913,0), 4 CTAs running
GPGPU-Sim uArch: core:  0, cta: 3 initialized @(159914,0)
GPGPU-Sim uArch: cycles simulated: 160000  inst.: 7689873 (ipc=48.1) sim_rate=132584 (inst/sec) elapsed = 0:0:00:58 / Wed Mar  3 10:45:14 2021
GPGPU-Sim PTX: 8000000 instructions simulated : ctaid=(8,3,0) tid=(7,7,0)
GPGPU-Sim uArch: Shader 0 finished CTA #4 (160694,0), 4 CTAs running
GPGPU-Sim uArch: core:  0, cta: 4 initialized @(160695,0)
GPGPU-Sim uArch: cycles simulated: 162500  inst.: 7794617 (ipc=48.0) sim_rate=132112 (inst/sec) elapsed = 0:0:00:59 / Wed Mar  3 10:45:15 2021
GPGPU-Sim uArch: Shader 7 finished CTA #3 (162644,0), 4 CTAs running
GPGPU-Sim uArch: core:  7, cta: 3 initialized @(162645,0)
GPGPU-Sim PTX: 8100000 instructions simulated : ctaid=(6,2,0) tid=(6,6,0)
GPGPU-Sim uArch: cycles simulated: 165500  inst.: 7841064 (ipc=47.4) sim_rate=130684 (inst/sec) elapsed = 0:0:01:00 / Wed Mar  3 10:45:16 2021
GPGPU-Sim uArch: Shader 5 finished CTA #3 (166004,0), 4 CTAs running
GPGPU-Sim uArch: core:  5, cta: 3 initialized @(166005,0)
GPGPU-Sim uArch: Shader 0 finished CTA #0 (166046,0), 4 CTAs running
GPGPU-Sim uArch: Shader 9 finished CTA #3 (166046,0), 4 CTAs running
GPGPU-Sim uArch: core:  9, cta: 3 initialized @(166047,0)
GPGPU-Sim uArch: core:  0, cta: 0 initialized @(166047,0)
GPGPU-Sim uArch: Shader 7 finished CTA #4 (166049,0), 4 CTAs running
GPGPU-Sim uArch: core:  7, cta: 4 initialized @(166050,0)
GPGPU-Sim uArch: Shader 14 finished CTA #0 (166055,0), 4 CTAs running
GPGPU-Sim uArch: core: 14, cta: 0 initialized @(166056,0)
GPGPU-Sim uArch: Shader 9 finished CTA #4 (166084,0), 4 CTAs running
GPGPU-Sim uArch: core:  9, cta: 4 initialized @(166085,0)
GPGPU-Sim uArch: Shader 10 finished CTA #4 (166104,0), 4 CTAs running
GPGPU-Sim uArch: core: 10, cta: 4 initialized @(166105,0)
GPGPU-Sim PTX: 8200000 instructions simulated : ctaid=(5,5,0) tid=(0,5,0)
GPGPU-Sim uArch: Shader 0 finished CTA #1 (166314,0), 4 CTAs running
GPGPU-Sim uArch: core:  0, cta: 1 initialized @(166315,0)
GPGPU-Sim PTX: 8300000 instructions simulated : ctaid=(6,4,0) tid=(1,0,0)
GPGPU-Sim PTX: 8400000 instructions simulated : ctaid=(15,4,0) tid=(2,4,0)
GPGPU-Sim PTX: 8500000 instructions simulated : ctaid=(11,0,0) tid=(14,3,0)
GPGPU-Sim uArch: cycles simulated: 167500  inst.: 8237046 (ipc=49.2) sim_rate=135033 (inst/sec) elapsed = 0:0:01:01 / Wed Mar  3 10:45:17 2021
GPGPU-Sim PTX: 8600000 instructions simulated : ctaid=(8,3,0) tid=(11,2,0)
GPGPU-Sim uArch: Shader 4 finished CTA #1 (169963,0), 4 CTAs running
GPGPU-Sim uArch: core:  4, cta: 1 initialized @(169964,0)
GPGPU-Sim uArch: cycles simulated: 170000  inst.: 8376976 (ipc=49.3) sim_rate=135112 (inst/sec) elapsed = 0:0:01:02 / Wed Mar  3 10:45:18 2021
GPGPU-Sim uArch: Shader 3 finished CTA #1 (170001,0), 4 CTAs running
GPGPU-Sim uArch: core:  3, cta: 1 initialized @(170002,0)
GPGPU-Sim PTX: 8700000 instructions simulated : ctaid=(5,5,0) tid=(4,2,0)
GPGPU-Sim uArch: cycles simulated: 173000  inst.: 8439692 (ipc=48.8) sim_rate=133963 (inst/sec) elapsed = 0:0:01:03 / Wed Mar  3 10:45:19 2021
GPGPU-Sim uArch: Shader 6 finished CTA #3 (173110,0), 4 CTAs running
GPGPU-Sim uArch: core:  6, cta: 3 initialized @(173111,0)
GPGPU-Sim uArch: Shader 3 finished CTA #0 (174105,0), 4 CTAs running
GPGPU-Sim uArch: core:  3, cta: 0 initialized @(174106,0)
GPGPU-Sim uArch: Shader 5 finished CTA #4 (174376,0), 4 CTAs running
GPGPU-Sim uArch: core:  5, cta: 4 initialized @(174377,0)
GPGPU-Sim PTX: 8800000 instructions simulated : ctaid=(6,5,0) tid=(5,0,0)
GPGPU-Sim uArch: cycles simulated: 176000  inst.: 8524589 (ipc=48.4) sim_rate=133196 (inst/sec) elapsed = 0:0:01:04 / Wed Mar  3 10:45:20 2021
GPGPU-Sim PTX: 8900000 instructions simulated : ctaid=(6,5,0) tid=(9,4,0)
GPGPU-Sim PTX: 9000000 instructions simulated : ctaid=(14,4,0) tid=(15,3,0)
GPGPU-Sim uArch: Shader 8 finished CTA #3 (178035,0), 4 CTAs running
GPGPU-Sim uArch: core:  8, cta: 3 initialized @(178036,0)
GPGPU-Sim PTX: 9100000 instructions simulated : ctaid=(12,5,0) tid=(0,0,0)
GPGPU-Sim uArch: Shader 3 finished CTA #2 (178193,0), 4 CTAs running
GPGPU-Sim uArch: core:  3, cta: 2 initialized @(178194,0)
GPGPU-Sim uArch: Shader 1 finished CTA #1 (178195,0), 4 CTAs running
GPGPU-Sim uArch: core:  1, cta: 1 initialized @(178196,0)
GPGPU-Sim uArch: Shader 4 finished CTA #2 (178196,0), 4 CTAs running
GPGPU-Sim uArch: core:  4, cta: 2 initialized @(178197,0)
GPGPU-Sim uArch: Shader 1 finished CTA #0 (178200,0), 4 CTAs running
GPGPU-Sim uArch: core:  1, cta: 0 initialized @(178201,0)
GPGPU-Sim uArch: Shader 5 finished CTA #2 (178201,0), 4 CTAs running
GPGPU-Sim uArch: core:  5, cta: 2 initialized @(178202,0)
GPGPU-Sim uArch: Shader 1 finished CTA #2 (178214,0), 4 CTAs running
GPGPU-Sim uArch: core:  1, cta: 2 initialized @(178215,0)
GPGPU-Sim uArch: Shader 6 finished CTA #2 (178215,0), 4 CTAs running
GPGPU-Sim uArch: core:  6, cta: 2 initialized @(178216,0)
GPGPU-Sim uArch: Shader 2 finished CTA #0 (178299,0), 4 CTAs running
GPGPU-Sim uArch: core:  2, cta: 0 initialized @(178300,0)
GPGPU-Sim uArch: Shader 2 finished CTA #1 (178313,0), 4 CTAs running
GPGPU-Sim uArch: core:  2, cta: 1 initialized @(178314,0)
GPGPU-Sim uArch: Shader 2 finished CTA #2 (178321,0), 4 CTAs running
GPGPU-Sim uArch: core:  2, cta: 2 initialized @(178322,0)
GPGPU-Sim uArch: Shader 14 finished CTA #2 (178357,0), 4 CTAs running
GPGPU-Sim uArch: core: 14, cta: 2 initialized @(178358,0)
GPGPU-Sim uArch: Shader 0 finished CTA #2 (178370,0), 4 CTAs running
GPGPU-Sim uArch: core:  0, cta: 2 initialized @(178371,0)
GPGPU-Sim uArch: Shader 1 finished CTA #3 (178373,0), 4 CTAs running
GPGPU-Sim uArch: core:  1, cta: 3 initialized @(178374,0)
GPGPU-Sim PTX: 9200000 instructions simulated : ctaid=(10,1,0) tid=(14,0,0)
GPGPU-Sim uArch: Shader 2 finished CTA #3 (178464,0), 4 CTAs running
GPGPU-Sim uArch: core:  2, cta: 3 initialized @(178465,0)
GPGPU-Sim uArch: cycles simulated: 178500  inst.: 8923804 (ipc=50.0) sim_rate=137289 (inst/sec) elapsed = 0:0:01:05 / Wed Mar  3 10:45:21 2021
GPGPU-Sim uArch: Shader 7 finished CTA #2 (178558,0), 4 CTAs running
GPGPU-Sim uArch: core:  7, cta: 2 initialized @(178559,0)
GPGPU-Sim uArch: Shader 8 finished CTA #2 (178561,0), 4 CTAs running
GPGPU-Sim uArch: core:  8, cta: 2 initialized @(178562,0)
GPGPU-Sim PTX: 9300000 instructions simulated : ctaid=(9,1,0) tid=(11,6,0)
GPGPU-Sim uArch: cycles simulated: 180000  inst.: 9077910 (ipc=50.4) sim_rate=137544 (inst/sec) elapsed = 0:0:01:06 / Wed Mar  3 10:45:22 2021
GPGPU-Sim PTX: 9400000 instructions simulated : ctaid=(9,6,0) tid=(5,0,0)
GPGPU-Sim uArch: Shader 8 finished CTA #4 (183091,0), 4 CTAs running
GPGPU-Sim uArch: core:  8, cta: 4 initialized @(183092,0)
GPGPU-Sim uArch: cycles simulated: 183500  inst.: 9112489 (ipc=49.7) sim_rate=136007 (inst/sec) elapsed = 0:0:01:07 / Wed Mar  3 10:45:23 2021
GPGPU-Sim uArch: Shader 6 finished CTA #4 (184265,0), 4 CTAs running
GPGPU-Sim uArch: core:  6, cta: 4 initialized @(184266,0)
GPGPU-Sim PTX: 9500000 instructions simulated : ctaid=(4,1,0) tid=(11,4,0)
GPGPU-Sim uArch: cycles simulated: 186000  inst.: 9198735 (ipc=49.5) sim_rate=135275 (inst/sec) elapsed = 0:0:01:08 / Wed Mar  3 10:45:24 2021
GPGPU-Sim PTX: 9600000 instructions simulated : ctaid=(10,0,0) tid=(13,7,0)
GPGPU-Sim uArch: cycles simulated: 188500  inst.: 9366211 (ipc=49.7) sim_rate=135742 (inst/sec) elapsed = 0:0:01:09 / Wed Mar  3 10:45:25 2021
GPGPU-Sim PTX: 9700000 instructions simulated : ctaid=(9,3,0) tid=(5,6,0)
GPGPU-Sim PTX: 9800000 instructions simulated : ctaid=(8,4,0) tid=(2,2,0)
GPGPU-Sim uArch: cycles simulated: 191000  inst.: 9528821 (ipc=49.9) sim_rate=136126 (inst/sec) elapsed = 0:0:01:10 / Wed Mar  3 10:45:26 2021
GPGPU-Sim uArch: Shader 3 finished CTA #3 (191437,0), 4 CTAs running
GPGPU-Sim uArch: core:  3, cta: 3 initialized @(191438,0)
GPGPU-Sim PTX: 9900000 instructions simulated : ctaid=(6,5,0) tid=(14,4,0)
GPGPU-Sim uArch: Shader 2 finished CTA #4 (191537,0), 4 CTAs running
GPGPU-Sim uArch: core:  2, cta: 4 initialized @(191538,0)
GPGPU-Sim PTX: 10000000 instructions simulated : ctaid=(4,5,0) tid=(11,6,0)
GPGPU-Sim uArch: cycles simulated: 193000  inst.: 9705081 (ipc=50.3) sim_rate=136691 (inst/sec) elapsed = 0:0:01:11 / Wed Mar  3 10:45:27 2021
GPGPU-Sim PTX: 10100000 instructions simulated : ctaid=(15,6,0) tid=(11,6,0)
GPGPU-Sim uArch: cycles simulated: 196000  inst.: 9839431 (ipc=50.2) sim_rate=136658 (inst/sec) elapsed = 0:0:01:12 / Wed Mar  3 10:45:28 2021
GPGPU-Sim PTX: 10200000 instructions simulated : ctaid=(7,3,0) tid=(13,3,0)
GPGPU-Sim PTX: 10300000 instructions simulated : ctaid=(4,5,0) tid=(12,3,0)
GPGPU-Sim uArch: cycles simulated: 198500  inst.: 9953141 (ipc=50.1) sim_rate=136344 (inst/sec) elapsed = 0:0:01:13 / Wed Mar  3 10:45:29 2021
GPGPU-Sim PTX: 10400000 instructions simulated : ctaid=(15,4,0) tid=(13,6,0)
GPGPU-Sim uArch: cycles simulated: 200500  inst.: 10091573 (ipc=50.3) sim_rate=136372 (inst/sec) elapsed = 0:0:01:14 / Wed Mar  3 10:45:30 2021
GPGPU-Sim PTX: 10500000 instructions simulated : ctaid=(4,0,0) tid=(12,2,0)
GPGPU-Sim PTX: 10600000 instructions simulated : ctaid=(3,6,0) tid=(3,0,0)
GPGPU-Sim uArch: cycles simulated: 203000  inst.: 10274534 (ipc=50.6) sim_rate=136993 (inst/sec) elapsed = 0:0:01:15 / Wed Mar  3 10:45:31 2021
GPGPU-Sim uArch: Shader 1 finished CTA #4 (204031,0), 4 CTAs running
GPGPU-Sim uArch: core:  1, cta: 4 initialized @(204032,0)
GPGPU-Sim uArch: cycles simulated: 206000  inst.: 10295289 (ipc=50.0) sim_rate=135464 (inst/sec) elapsed = 0:0:01:16 / Wed Mar  3 10:45:32 2021
GPGPU-Sim PTX: 10700000 instructions simulated : ctaid=(8,2,0) tid=(7,5,0)
GPGPU-Sim uArch: cycles simulated: 209000  inst.: 10370112 (ipc=49.6) sim_rate=134676 (inst/sec) elapsed = 0:0:01:17 / Wed Mar  3 10:45:33 2021
GPGPU-Sim uArch: Shader 0 finished CTA #3 (209375,0), 4 CTAs running
GPGPU-Sim uArch: core:  0, cta: 3 initialized @(209376,0)
GPGPU-Sim uArch: Shader 14 finished CTA #3 (209380,0), 4 CTAs running
GPGPU-Sim uArch: core: 14, cta: 3 initialized @(209381,0)
GPGPU-Sim PTX: 10800000 instructions simulated : ctaid=(8,6,0) tid=(15,6,0)
GPGPU-Sim PTX: 10900000 instructions simulated : ctaid=(1,6,0) tid=(14,2,0)
GPGPU-Sim PTX: 11000000 instructions simulated : ctaid=(15,5,0) tid=(5,5,0)
[...]
dram[1]:        69        42        63        51        59        42        50        43        18        12         5        11        14        13        13         8 
dram[2]:        59        44        38        44        57        54        49        40        16        15         7         4         8        13         8        10 
dram[3]:        62        41        43        53        48        53        51        45        16        17         9         8         6         6        13        10 
dram[4]:        62        54        43        40        54        47        49        46        18        17        15         4         7        12         5         9 
dram[5]:        46        55        53        44        50        39        51        47        13        13        12        17         5         1        10         9 
dram[6]:        63        44        42        52        40        53        44        47        16        12        11        12        11         9         4         7 
dram[7]:        57        60        45        55        45        44        47        42        16         8        16        10        15         7         2         8 
total tag writes: 3891
bank skew: 69/1 = 69.00
chip skew: 540/465 = 1.16
average mf latency per bank:
dram[0]:      19406     13459      7156     16524      7374     11595     10781      7012      5077      2635     44482      3114      4224      2593     27490    313143
dram[1]:      12662     11587      7181     16650      6049     16733      6009      6586      2994      2020    120424      2939      2992      4155     31869     39558
dram[2]:      11317      6433      8679     19206      5108     12321      5751     10943      4136      3470     78865      3133      4884      3127     60500      3998
dram[3]:      13584     10256     14116     15282      8990     14347      6695      8821      4207     22098     81754      6402      5457      3772     32018      2057
dram[4]:      15059      7498     13673     24787      6491     14939     10503      7447      4809     19161     11822      4064      8799      3250    154049      2372
dram[5]:      18356      7907      9283     21374     17238     19467     10141      7762      6481     24681      6418      5448      7615      2405     54264      3674
dram[6]:      15479      8036     20055     19374     15715     12086      9438      5049      4760     37334      6175      3778      7245      3460    188931      2444
dram[7]:      14576      8832     16774      7675     15070      8062      8829      4936      3253     58831      4781      4954      3999      3863    231940      3828
maximum mf latency per bank:
dram[0]:      57334     30707     19654     27997     22832     43345     26389     24807     19039      9976     37590      9816     19646     16260     36850     31185
dram[1]:      44449     28141     24344     29864     24399     37459     17825     26410     11604     11122     43094     12165     15761     15562     44685     27165
dram[2]:      35269     24021     18087     29086     18575     22639     27855     21142     20490     13645     33414      9426     12648     18024     28338     30526
dram[3]:      35868     24343     26652     26828     25679     21251     27338     20372     12197     26513     31927     23116     16316     11700     26497     10620
dram[4]:      31209     20730     35481     27347     24692     28526     30871     17306     25273     37724     23247     11485     26831     12923     34705     11848
dram[5]:      37404     20067     29094     34773     29178     32492     30063     18151     20240     27891     22982     14577     18328      7216     37181     12415
dram[6]:      39398     25816     39954     29984     40698     33847     21556     14973     22673     32045     31494     11096     23709     11533     39378     11489
dram[7]:      34219     31586     41410     21458     29986     19743     23742     16442     13240     29992     14740     23529     13081     16968     32932     13420
Memory Partition 0: 
Cache L2_bank_000:
MSHR contents

Cache L2_bank_001:
MSHR contents

In Dram Latency Queue (total = 0): 
DRAM[0]: 16 bks, busW=4 BL=8 CL=12, tRRD=2 tCCD=6, tRCD=12 tRAS=28 tRP=12 tRC=40
n_cmd=996769 n_nop=987505 n_act=144 n_pre=128 n_req=4498 n_rd=5720 n_write=3272 bw_util=0.01804
n_activity=48984 dram_eff=0.3671
bk0: 560a 993432i bk1: 576a 992896i bk2: 436a 993829i bk3: 800a 992138i bk4: 448a 993473i bk5: 568a 993390i bk6: 372a 994451i bk7: 380a 994759i bk8: 88a 996163i bk9: 72a 996291i bk10: 394a 995145i bk11: 32a 996569i bk12: 92a 996293i bk13: 76a 996421i bk14: 272a 995462i bk15: 554a 994840i 
dram_util_bins: 0 0 0 0 0 0 0 0 0 0
dram_eff_bins: 0 0 0 0 0 0 0 0 0 0
mrqq: max=8 avg=0.0183182
Cache DRAM_CACHE_000:
MSHR contents

sub partition 0 sub_partition_contention=F has_dram_resource=T
sub partition 1 sub_partition_contention=F has_dram_resource=T
Memory Partition 1: 
Cache L2_bank_002:
MSHR contents

Cache L2_bank_003:
MSHR contents

In Dram Latency Queue (total = 0): 
DRAM[1]: 16 bks, busW=4 BL=8 CL=12, tRRD=2 tCCD=6, tRCD=12 tRAS=28 tRP=12 tRC=40
n_cmd=996769 n_nop=987404 n_act=144 n_pre=128 n_req=4549 n_rd=5960 n_write=3133 bw_util=0.01824
n_activity=50733 dram_eff=0.3585
bk0: 636a 993016i bk1: 440a 994157i bk2: 440a 993482i bk3: 824a 992226i bk4: 420a 993918i bk5: 782a 992523i bk6: 408a 994449i bk7: 368a 994811i bk8: 128a 995982i bk9: 88a 996230i bk10: 510a 995069i bk11: 80a 996245i bk12: 80a 996238i bk13: 84a 996275i bk14: 328a 995396i bk15: 344a 995590i 
dram_util_bins: 0 0 0 0 0 0 0 0 0 0
dram_eff_bins: 0 0 0 0 0 0 0 0 0 0
mrqq: max=12 avg=0.0195672
Cache DRAM_CACHE_001:
MSHR contents

sub partition 0 sub_partition_contention=F has_dram_resource=T
sub partition 1 sub_partition_contention=F has_dram_resource=T
Memory Partition 2: 
Cache L2_bank_004:
MSHR contents

Cache L2_bank_005:
MSHR contents

In Dram Latency Queue (total = 0): 
DRAM[2]: 16 bks, busW=4 BL=8 CL=12, tRRD=2 tCCD=6, tRCD=12 tRAS=28 tRP=12 tRC=40
n_cmd=996769 n_nop=988157 n_act=151 n_pre=135 n_req=4167 n_rd=5512 n_write=2814 bw_util=0.01671
n_activity=46492 dram_eff=0.3582
bk0: 564a 993350i bk1: 388a 994461i bk2: 416a 994693i bk3: 858a 992555i bk4: 448a 993822i bk5: 674a 992876i bk6: 404a 994445i bk7: 380a 994413i bk8: 120a 996052i bk9: 112a 996105i bk10: 460a 995282i bk11: 28a 996592i bk12: 60a 996470i bk13: 88a 996148i bk14: 456a 995262i bk15: 56a 996478i 
dram_util_bins: 0 0 0 0 0 0 0 0 0 0
dram_eff_bins: 0 0 0 0 0 0 0 0 0 0
mrqq: max=12 avg=0.0199434
Cache DRAM_CACHE_002:
MSHR contents

sub partition 0 sub_partition_contention=F has_dram_resource=T
sub partition 1 sub_partition_contention=F has_dram_resource=T
Memory Partition 3: 
Cache L2_bank_006:
MSHR contents

Cache L2_bank_007:
MSHR contents

In Dram Latency Queue (total = 0): 
DRAM[3]: 16 bks, busW=4 BL=8 CL=12, tRRD=2 tCCD=6, tRCD=12 tRAS=28 tRP=12 tRC=40
n_cmd=996769 n_nop=988038 n_act=133 n_pre=117 n_req=4244 n_rd=5562 n_write=2919 bw_util=0.01702
n_activity=45739 dram_eff=0.3708
bk0: 540a 992976i bk1: 384a 994630i bk2: 388a 994259i bk3: 782a 992690i bk4: 400a 994257i bk5: 806a 992172i bk6: 404a 994062i bk7: 396a 994407i bk8: 116a 995985i bk9: 352a 995189i bk10: 478a 994735i bk11: 64a 996262i bk12: 44a 996514i bk13: 40a 996551i bk14: 312a 995533i bk15: 56a 996445i 
dram_util_bins: 0 0 0 0 0 0 0 0 0 0
dram_eff_bins: 0 0 0 0 0 0 0 0 0 0
mrqq: max=13 avg=0.0219971
Cache DRAM_CACHE_003:
MSHR contents

sub partition 0 sub_partition_contention=F has_dram_resource=T
sub partition 1 sub_partition_contention=F has_dram_resource=T
Memory Partition 4: 
Cache L2_bank_008:
MSHR contents

Cache L2_bank_009:
MSHR contents

In Dram Latency Queue (total = 0): 
DRAM[4]: 16 bks, busW=4 BL=8 CL=12, tRRD=2 tCCD=6, tRCD=12 tRAS=28 tRP=12 tRC=40
n_cmd=996769 n_nop=987993 n_act=166 n_pre=150 n_req=4231 n_rd=5546 n_write=2914 bw_util=0.01697
n_activity=47567 dram_eff=0.3557
bk0: 596a 992841i bk1: 416a 994142i bk2: 384a 994697i bk3: 920a 992256i bk4: 404a 994075i bk5: 698a 992734i bk6: 408a 994167i bk7: 348a 994690i bk8: 128a 995962i bk9: 316a 995410i bk10: 148a 995979i bk11: 28a 996605i bk12: 52a 996470i bk13: 92a 996322i bk14: 540a 994859i bk15: 68a 996457i 
dram_util_bins: 0 0 0 0 0 0 0 0 0 0
dram_eff_bins: 0 0 0 0 0 0 0 0 0 0
mrqq: max=9 avg=0.0189372
Cache DRAM_CACHE_004:
MSHR contents

sub partition 0 sub_partition_contention=F has_dram_resource=T
sub partition 1 sub_partition_contention=F has_dram_resource=T
Memory Partition 5: 
Cache L2_bank_010:
MSHR contents

Cache L2_bank_011:
MSHR contents

In Dram Latency Queue (total = 0): 
DRAM[5]: 16 bks, busW=4 BL=8 CL=12, tRRD=2 tCCD=6, tRCD=12 tRAS=28 tRP=12 tRC=40
n_cmd=996769 n_nop=987992 n_act=162 n_pre=146 n_req=4240 n_rd=5650 n_write=2819 bw_util=0.01699
n_activity=47893 dram_eff=0.3537
bk0: 544a 993580i bk1: 436a 994152i bk2: 404a 994240i bk3: 912a 992062i bk4: 554a 993248i bk5: 856a 992553i bk6: 404a 993973i bk7: 360a 994571i bk8: 104a 996082i bk9: 366a 995430i bk10: 92a 996212i bk11: 112a 995971i bk12: 36a 996527i bk13: 4a 996750i bk14: 394a 995253i bk15: 72a 996432i 
dram_util_bins: 0 0 0 0 0 0 0 0 0 0
dram_eff_bins: 0 0 0 0 0 0 0 0 0 0
mrqq: max=10 avg=0.0192351
Cache DRAM_CACHE_005:
MSHR contents

sub partition 0 sub_partition_contention=F has_dram_resource=T
sub partition 1 sub_partition_contention=F has_dram_resource=T
Memory Partition 6: 
Cache L2_bank_012:
MSHR contents

Cache L2_bank_013:
MSHR contents

In Dram Latency Queue (total = 0): 
DRAM[6]: 16 bks, busW=4 BL=8 CL=12, tRRD=2 tCCD=6, tRCD=12 tRAS=28 tRP=12 tRC=40
n_cmd=996769 n_nop=987756 n_act=166 n_pre=150 n_req=4352 n_rd=5872 n_write=2825 bw_util=0.01745
n_activity=48684 dram_eff=0.3573
bk0: 608a 992958i bk1: 424a 994036i bk2: 756a 992490i bk3: 894a 991801i bk4: 512a 994329i bk5: 572a 993535i bk6: 364a 994714i bk7: 356a 994649i bk8: 104a 996067i bk9: 402a 995212i bk10: 72a 996316i bk11: 92a 996229i bk12: 84a 996292i bk13: 72a 996393i bk14: 520a 994977i bk15: 40a 996558i 
dram_util_bins: 0 0 0 0 0 0 0 0 0 0
dram_eff_bins: 0 0 0 0 0 0 0 0 0 0
mrqq: max=10 avg=0.0200919
Cache DRAM_CACHE_006:
MSHR contents

sub partition 0 sub_partition_contention=F has_dram_resource=T
sub partition 1 sub_partition_contention=F has_dram_resource=T
Memory Partition 7: 
Cache L2_bank_014:
MSHR contents

Cache L2_bank_015:
MSHR contents

In Dram Latency Queue (total = 0): 
DRAM[7]: 16 bks, busW=4 BL=8 CL=12, tRRD=2 tCCD=6, tRCD=12 tRAS=28 tRP=12 tRC=40
n_cmd=996769 n_nop=987979 n_act=158 n_pre=142 n_req=4247 n_rd=5564 n_write=2926 bw_util=0.01704
n_activity=48082 dram_eff=0.3531
bk0: 540a 993333i bk1: 484a 993228i bk2: 772a 992754i bk3: 510a 993455i bk4: 650a 993221i bk5: 372a 994696i bk6: 380a 994318i bk7: 316a 994901i bk8: 128a 996066i bk9: 486a 995083i bk10: 112a 995946i bk11: 76a 996360i bk12: 100a 996153i bk13: 48a 996560i bk14: 530a 995092i bk15: 60a 996492i 
dram_util_bins: 0 0 0 0 0 0 0 0 0 0
dram_eff_bins: 0 0 0 0 0 0 0 0 0 0
mrqq: max=11 avg=0.0178286
Cache DRAM_CACHE_007:
MSHR contents

sub partition 0 sub_partition_contention=F has_dram_resource=T
sub partition 1 sub_partition_contention=F has_dram_resource=T

========= L2 cache stats =========
L2_cache_bank[0]: Access = 4118, Miss = 943, Miss_rate = 0.229, Pending_hits = 54, Reservation_fails = 55425
L2_cache_bank[1]: Access = 2011, Miss = 1187, Miss_rate = 0.590, Pending_hits = 15, Reservation_fails = 0
L2_cache_bank[2]: Access = 15379, Miss = 1074, Miss_rate = 0.070, Pending_hits = 100, Reservation_fails = 33395
L2_cache_bank[3]: Access = 2057, Miss = 1152, Miss_rate = 0.560, Pending_hits = 14, Reservation_fails = 0
L2_cache_bank[4]: Access = 5993, Miss = 1089, Miss_rate = 0.182, Pending_hits = 55, Reservation_fails = 2170
L2_cache_bank[5]: Access = 1738, Miss = 935, Miss_rate = 0.538, Pending_hits = 21, Reservation_fails = 0
L2_cache_bank[6]: Access = 1914, Miss = 978, Miss_rate = 0.511, Pending_hits = 32, Reservation_fails = 0
L2_cache_bank[7]: Access = 1951, Miss = 1069, Miss_rate = 0.548, Pending_hits = 30, Reservation_fails = 0
L2_cache_bank[8]: Access = 1882, Miss = 962, Miss_rate = 0.511, Pending_hits = 20, Reservation_fails = 0
L2_cache_bank[9]: Access = 2010, Miss = 1099, Miss_rate = 0.547, Pending_hits = 34, Reservation_fails = 0
L2_cache_bank[10]: Access = 1773, Miss = 915, Miss_rate = 0.516, Pending_hits = 23, Reservation_fails = 0
L2_cache_bank[11]: Access = 2066, Miss = 1218, Miss_rate = 0.590, Pending_hits = 37, Reservation_fails = 0
L2_cache_bank[12]: Access = 2098, Miss = 1143, Miss_rate = 0.545, Pending_hits = 36, Reservation_fails = 0
L2_cache_bank[13]: Access = 2025, Miss = 1077, Miss_rate = 0.532, Pending_hits = 38, Reservation_fails = 0
L2_cache_bank[14]: Access = 2104, Miss = 1242, Miss_rate = 0.590, Pending_hits = 37, Reservation_fails = 0
L2_cache_bank[15]: Access = 1635, Miss = 830, Miss_rate = 0.508, Pending_hits = 30, Reservation_fails = 0
L2_total_cache_accesses = 50754
L2_total_cache_misses = 16913
L2_total_cache_miss_rate = 0.3332
L2_total_cache_pending_hits = 576
L2_total_cache_reservation_fails = 90990
L2_total_cache_breakdown:
	L2_cache_stats_breakdown[GLOBAL_ACC_R][HIT] = 1440
	L2_cache_stats_breakdown[GLOBAL_ACC_R][HIT_RESERVED] = 348
	L2_cache_stats_breakdown[GLOBAL_ACC_R][MISS] = 2048
	L2_cache_stats_breakdown[LOCAL_ACC_R][HIT] = 2187
	L2_cache_stats_breakdown[LOCAL_ACC_R][MISS] = 3604
	L2_cache_stats_breakdown[CONST_ACC_R][HIT] = 59
	L2_cache_stats_breakdown[CONST_ACC_R][HIT_RESERVED] = 12
	L2_cache_stats_breakdown[CONST_ACC_R][MISS] = 4
	L2_cache_stats_breakdown[CONST_ACC_R][RESERVATION_FAIL] = 10188
	L2_cache_stats_breakdown[GLOBAL_ACC_W][HIT] = 4183
	L2_cache_stats_breakdown[GLOBAL_ACC_W][HIT_RESERVED] = 77
	L2_cache_stats_breakdown[GLOBAL_ACC_W][MISS] = 3932
	L2_cache_stats_breakdown[LOCAL_ACC_W][HIT] = 1637
	L2_cache_stats_breakdown[LOCAL_ACC_W][MISS] = 7278
	L2_cache_stats_breakdown[L1_WRBK_ACC][HIT] = 4547
	L2_cache_stats_breakdown[INST_ACC_R][HIT] = 19212
	L2_cache_stats_breakdown[INST_ACC_R][HIT_RESERVED] = 139
	L2_cache_stats_breakdown[INST_ACC_R][MISS] = 47
	L2_cache_stats_breakdown[INST_ACC_R][RESERVATION_FAIL] = 80802
L2_cache_data_port_util = 0.010
L2_cache_fill_port_util = 0.002

========= DRAM cache stats =========
Reads Saved:0
Writes Saved:0
Num. Invalid Blocks:5
DRAM_cache_channel[0]: Access = 2132, Miss = 1916, Miss_rate = 0.899, Pending_hits = 148, Reservation_fails = 1037709
Reads Saved:0
Writes Saved:0
Num. Invalid Blocks:9
DRAM_cache_channel[1]: Access = 2228, Miss = 1951, Miss_rate = 0.876, Pending_hits = 170, Reservation_fails = 929244
Reads Saved:0
Writes Saved:0
Num. Invalid Blocks:4
DRAM_cache_channel[2]: Access = 2037, Miss = 1764, Miss_rate = 0.866, Pending_hits = 206, Reservation_fails = 741443
Reads Saved:0
Writes Saved:0
Num. Invalid Blocks:9
DRAM_cache_channel[3]: Access = 2067, Miss = 1791, Miss_rate = 0.866, Pending_hits = 209, Reservation_fails = 977569
Reads Saved:0
Writes Saved:0
Num. Invalid Blocks:3
DRAM_cache_channel[4]: Access = 2067, Miss = 1822, Miss_rate = 0.881, Pending_hits = 208, Reservation_fails = 963016
Reads Saved:0
Writes Saved:0
Num. Invalid Blocks:3
DRAM_cache_channel[5]: Access = 2144, Miss = 1891, Miss_rate = 0.882, Pending_hits = 197, Reservation_fails = 921362
Reads Saved:0
Writes Saved:0
Num. Invalid Blocks:2
DRAM_cache_channel[6]: Access = 2235, Miss = 1968, Miss_rate = 0.881, Pending_hits = 219, Reservation_fails = 1038892
Reads Saved:0
Writes Saved:0
Num. Invalid Blocks:10
DRAM_cache_channel[7]: Access = 2080, Miss = 1807, Miss_rate = 0.869, Pending_hits = 204, Reservation_fails = 829674
DRAM_total_cache_accesses = 16990
DRAM_total_cache_misses = 14910
DRAM_total_cache_miss_rate = 0.8776
DRAM_total_cache_pending_hits = 1561
DRAM_total_cache_reservation_fails = 7438909
DRAM_total_cache_breakdown:
	dram_cache_stats_breakdown[GLOBAL_ACC_R][HIT] = 152
	dram_cache_stats_breakdown[GLOBAL_ACC_R][HIT_RESERVED] = 179
	dram_cache_stats_breakdown[GLOBAL_ACC_R][MISS] = 1717
	dram_cache_stats_breakdown[GLOBAL_ACC_R][RESERVATION_FAIL] = 1330904
	dram_cache_stats_breakdown[LOCAL_ACC_R][HIT] = 182
	dram_cache_stats_breakdown[LOCAL_ACC_R][HIT_RESERVED] = 1276
	dram_cache_stats_breakdown[LOCAL_ACC_R][MISS] = 2146
	dram_cache_stats_breakdown[LOCAL_ACC_R][RESERVATION_FAIL] = 1377772
	dram_cache_stats_breakdown[CONST_ACC_R][HIT] = 1
	dram_cache_stats_breakdown[CONST_ACC_R][MISS] = 3
	dram_cache_stats_breakdown[CONST_ACC_R][RESERVATION_FAIL] = 1595
	dram_cache_stats_breakdown[GLOBAL_ACC_W][HIT] = 46
	dram_cache_stats_breakdown[GLOBAL_ACC_W][HIT_RESERVED] = 95
	dram_cache_stats_breakdown[GLOBAL_ACC_W][MISS] = 3868
	dram_cache_stats_breakdown[GLOBAL_ACC_W][RESERVATION_FAIL] = 1382174
	dram_cache_stats_breakdown[LOCAL_ACC_W][HIT] = 116
	dram_cache_stats_breakdown[LOCAL_ACC_W][HIT_RESERVED] = 11
	dram_cache_stats_breakdown[LOCAL_ACC_W][MISS] = 7151
	dram_cache_stats_breakdown[LOCAL_ACC_W][RESERVATION_FAIL] = 3329525
	dram_cache_stats_breakdown[INST_ACC_R][HIT] = 22
	dram_cache_stats_breakdown[INST_ACC_R][MISS] = 25
	dram_cache_stats_breakdown[INST_ACC_R][RESERVATION_FAIL] = 16939
dram_cache_data_port_util = 0.000
dram_cache_fill_port_util = 0.004

icnt_total_pkts_mem_to_simt=162457
icnt_total_pkts_simt_to_mem=120673
LD_mem_lat_dist  0 0 0 0 0 0 0 0 0 0 0 0 0 0 0 0 0 0 0 0 0 0 0 0 0 0 0 0 0 0 0 0 0
ST_mem_lat_dist  0 0 0 0 0 0 0 0 0 0 0 0 0 0 0 0 0 0 0 0 0 0 0 0 0 0 0 0 0 0 0 0 0
----------------------------Interconnect-DETAILS--------------------------------
Class 0:
Packet latency average = 427.32
	minimum = 6
	maximum = 24943
Network latency average = 281.856
	minimum = 6
	maximum = 24834
Slowest packet = 685
Flit latency average = 227.78
	minimum = 6
	maximum = 24832
Slowest flit = 2638
Fragmentation average = 9.81093
	minimum = 0
	maximum = 12951
Injected packet rate average = 0.00459031
	minimum = 0.00201501 (at node 30)
	maximum = 0.0220697 (at node 17)
Accepted packet rate average = 0.00459031
	minimum = 0.00239952 (at node 30)
	maximum = 0.0225702 (at node 17)
Injected flit rate average = 0.0134039
	minimum = 0.00528482 (at node 30)
	maximum = 0.104044 (at node 17)
Accepted flit rate average= 0.0134039
	minimum = 0.00720737 (at node 30)
	maximum = 0.0293431 (at node 17)
Injected packet length average = 2.92004
Accepted packet length average = 2.92004
Total in-flight flits = 0 (0 measured)
====== Overall Traffic Statistics ======
====== Traffic class 0 ======
Packet latency average = 427.32 (1 samples)
	minimum = 6 (1 samples)
	maximum = 24943 (1 samples)
Network latency average = 281.856 (1 samples)
	minimum = 6 (1 samples)
	maximum = 24834 (1 samples)
Flit latency average = 227.78 (1 samples)
	minimum = 6 (1 samples)
	maximum = 24832 (1 samples)
Fragmentation average = 9.81093 (1 samples)
	minimum = 0 (1 samples)
	maximum = 12951 (1 samples)
Injected packet rate average = 0.00459031 (1 samples)
	minimum = 0.00201501 (1 samples)
	maximum = 0.0220697 (1 samples)
Accepted packet rate average = 0.00459031 (1 samples)
	minimum = 0.00239952 (1 samples)
	maximum = 0.0225702 (1 samples)
Injected flit rate average = 0.0134039 (1 samples)
	minimum = 0.00528482 (1 samples)
	maximum = 0.104044 (1 samples)
Accepted flit rate average = 0.0134039 (1 samples)
	minimum = 0.00720737 (1 samples)
	maximum = 0.0293431 (1 samples)
Injected packet size average = 2.92004 (1 samples)
Accepted packet size average = 2.92004 (1 samples)
Hops average = 1 (1 samples)
----------------------------END-of-Interconnect-DETAILS-------------------------
PCIe:	 <NULL mem_fetch pointer>
PCIe Request---3891	11180	0


gpgpu_simulation_time = 0 days, 0 hrs, 4 min, 35 sec (275 sec)
gpgpu_simulation_rate = 170424 (inst/sec)
gpgpu_simulation_rate = 2477 (cycle/sec)
GPGPU-Sim: synchronize waiting for inactive GPU simulation
GPGPU-Sim API: Stream Manager State
GPGPU-Sim: detected inactive GPU simulation thread

checksum=75ef40cb5b8e
Kernel Time: 274995.593750 
